# RIV for MODFLOW, generated by Flopy.
        22         0
        22         0
        1         1        14  7.201513e+00  1.367687e+04  5.000000e+00
        1         2        14  7.201513e+00  1.361030e+04  5.000000e+00
        1         3        14  7.201513e+00  1.215895e+04  5.000000e+00
        1         4         6  7.201513e+00  1.097679e+04  5.000000e+00
        1         4         7  7.201513e+00  1.140475e+04  5.000000e+00
        1         4         8  7.201513e+00  1.187813e+04  5.000000e+00
        1         4         9  7.201513e+00  1.313740e+04  5.000000e+00
        1         4        10  7.201513e+00  1.207666e+04  5.000000e+00
        1         4        11  7.201513e+00  1.078201e+04  5.000000e+00
        1         4        12  7.201513e+00  5.226035e+03  5.000000e+00
        1         4        14  7.201513e+00  1.502485e+04  5.000000e+00
        1         5         3  7.201513e+00  6.924599e+02  5.000000e+00
        1         5         4  7.201513e+00  2.056855e+03  5.000000e+00
        1         5         5  7.201513e+00  1.353320e+04  5.000000e+00
        1         5         6  7.201513e+00  5.979400e+03  5.000000e+00
        1         5        12  7.201513e+00  8.415134e+03  5.000000e+00
        1         5        13  7.201513e+00  1.685208e+04  5.000000e+00
        1         5        14  7.201513e+00  5.216416e+03  5.000000e+00
        1         6         2  7.201513e+00  1.212738e+04  5.000000e+00
        1         6         3  7.201513e+00  1.813973e+04  5.000000e+00
        1         6         4  7.201513e+00  1.031969e+04  5.000000e+00
        1         6         5  7.201513e+00  1.333603e+03  5.000000e+00
        22         0
        1         1        14  7.844468e+00  1.367687e+04  5.000000e+00
        1         2        14  7.844468e+00  1.361030e+04  5.000000e+00
        1         3        14  7.844468e+00  1.215895e+04  5.000000e+00
        1         4         6  7.844468e+00  1.097679e+04  5.000000e+00
        1         4         7  7.844468e+00  1.140475e+04  5.000000e+00
        1         4         8  7.844468e+00  1.187813e+04  5.000000e+00
        1         4         9  7.844468e+00  1.313740e+04  5.000000e+00
        1         4        10  7.844468e+00  1.207666e+04  5.000000e+00
        1         4        11  7.844468e+00  1.078201e+04  5.000000e+00
        1         4        12  7.844468e+00  5.226035e+03  5.000000e+00
        1         4        14  7.844468e+00  1.502485e+04  5.000000e+00
        1         5         3  7.844468e+00  6.924599e+02  5.000000e+00
        1         5         4  7.844468e+00  2.056855e+03  5.000000e+00
        1         5         5  7.844468e+00  1.353320e+04  5.000000e+00
        1         5         6  7.844468e+00  5.979400e+03  5.000000e+00
        1         5        12  7.844468e+00  8.415134e+03  5.000000e+00
        1         5        13  7.844468e+00  1.685208e+04  5.000000e+00
        1         5        14  7.844468e+00  5.216416e+03  5.000000e+00
        1         6         2  7.844468e+00  1.212738e+04  5.000000e+00
        1         6         3  7.844468e+00  1.813973e+04  5.000000e+00
        1         6         4  7.844468e+00  1.031969e+04  5.000000e+00
        1         6         5  7.844468e+00  1.333603e+03  5.000000e+00
        22         0
        1         1        14  7.826843e+00  1.367687e+04  5.000000e+00
        1         2        14  7.826843e+00  1.361030e+04  5.000000e+00
        1         3        14  7.826843e+00  1.215895e+04  5.000000e+00
        1         4         6  7.826843e+00  1.097679e+04  5.000000e+00
        1         4         7  7.826843e+00  1.140475e+04  5.000000e+00
        1         4         8  7.826843e+00  1.187813e+04  5.000000e+00
        1         4         9  7.826843e+00  1.313740e+04  5.000000e+00
        1         4        10  7.826843e+00  1.207666e+04  5.000000e+00
        1         4        11  7.826843e+00  1.078201e+04  5.000000e+00
        1         4        12  7.826843e+00  5.226035e+03  5.000000e+00
        1         4        14  7.826843e+00  1.502485e+04  5.000000e+00
        1         5         3  7.826843e+00  6.924599e+02  5.000000e+00
        1         5         4  7.826843e+00  2.056855e+03  5.000000e+00
        1         5         5  7.826843e+00  1.353320e+04  5.000000e+00
        1         5         6  7.826843e+00  5.979400e+03  5.000000e+00
        1         5        12  7.826843e+00  8.415134e+03  5.000000e+00
        1         5        13  7.826843e+00  1.685208e+04  5.000000e+00
        1         5        14  7.826843e+00  5.216416e+03  5.000000e+00
        1         6         2  7.826843e+00  1.212738e+04  5.000000e+00
        1         6         3  7.826843e+00  1.813973e+04  5.000000e+00
        1         6         4  7.826843e+00  1.031969e+04  5.000000e+00
        1         6         5  7.826843e+00  1.333603e+03  5.000000e+00
