# UPW for MODFLOW-NWT, generated by Flopy.
         0    -1E+04         0         1 
         1
         1
         1
         1
         0
INTERNAL               1 (20G15.6)  -1 #hk Layer 1                    
   4.008556E+00   4.015968E+00   4.021326E+00   4.024041E+00   4.023955E+00   4.021358E+00   4.016915E+00   4.011533E+00   4.006191E+00   4.001761E+00   3.998856E+00   3.997732E+00   4.073555E+00   1.237375E+01   4.013459E+00   4.004508E+00   4.005885E+00   3.839524E+00   3.014973E+00   3.012795E+00
   4.016365E+00   4.030541E+00   4.040790E+00   4.045982E+00   4.045820E+00   4.040853E+00   4.032353E+00   4.022058E+00   4.011842E+00   4.003369E+00   3.997811E+00   3.995661E+00   3.996693E+00   8.360505E+00   4.004490E+00   4.008623E+00   4.011255E+00   3.701111E+00   3.019512E+00   3.015347E+00
   4.022851E+00   4.073193E+00   4.059377E+00   4.064209E+00   4.063981E+00   4.750606E+00   6.235561E+00   5.539721E+00   4.016535E+00   4.004704E+00   3.996943E+00   3.993942E+00   3.995382E+00   4.000077E+00   4.006270E+00   4.012041E+00   4.015716E+00   3.740182E+00   3.023282E+00   3.017466E+00
   4.027491E+00   4.051306E+00   4.068522E+00   4.077245E+00   4.076971E+00   5.239904E+00   8.044822E+00   5.655482E+00   4.019893E+00   4.005660E+00   3.996323E+00   3.992712E+00   3.994444E+00   4.000092E+00   4.007544E+00   4.014486E+00   4.018907E+00   3.771417E+00   3.025979E+00   3.018982E+00
   4.029908E+00   4.055818E+00   4.074547E+00   4.084037E+00   4.083740E+00   4.074662E+00   4.059128E+00   4.040314E+00   4.021642E+00   4.006157E+00   3.995999E+00   3.992071E+00   3.993956E+00   4.000100E+00   4.008207E+00   3.767034E+00   3.103685E+00   3.556498E+00   3.250239E+00   3.023363E+00
   4.029908E+00   4.055818E+00   4.074547E+00   4.084037E+00   4.083740E+00   4.074662E+00   4.059128E+00   4.040314E+00   4.021642E+00   4.006157E+00   3.995999E+00   3.992071E+00   3.993956E+00   4.000100E+00   4.008207E+00   3.701013E+00   3.366464E+00   3.675119E+00   3.344759E+00   3.163603E+00
   4.027491E+00   4.051306E+00   4.068522E+00   4.077245E+00   4.076971E+00   4.068627E+00   4.054348E+00   4.037055E+00   4.019893E+00   4.005660E+00   3.996323E+00   3.992712E+00   3.994444E+00   4.000092E+00   4.007544E+00   4.014486E+00   3.974138E+00   3.156781E+00   3.025979E+00   3.018982E+00
   4.022851E+00   4.042647E+00   4.056958E+00   4.064209E+00   4.063981E+00   4.057045E+00   4.045177E+00   4.030801E+00   4.016535E+00   4.004704E+00   3.996943E+00   3.993942E+00   3.995382E+00   4.000077E+00   4.006270E+00   4.012041E+00   4.013872E+00   3.355274E+00   3.023282E+00   3.017466E+00
   4.016365E+00   4.030541E+00   4.040790E+00   4.045982E+00   4.045820E+00   4.040853E+00   4.032353E+00   4.022058E+00   4.011842E+00   4.003369E+00   3.997811E+00   3.995661E+00   3.996693E+00   4.000055E+00   4.004490E+00   4.008623E+00   4.011255E+00   3.974097E+00   3.675358E+00   3.438649E+00
   4.008556E+00   4.015968E+00   4.021326E+00   4.024041E+00   4.023955E+00   4.021358E+00   4.016915E+00   4.011533E+00   4.006191E+00   4.001761E+00   3.998856E+00   3.997732E+00   3.998271E+00   4.000029E+00   4.002348E+00   4.004508E+00   4.005885E+00   4.006073E+00   4.004973E+00   4.002796E+00
CONSTANT    1.000000E+00                           #vka Layer 1                   
CONSTANT    1.000000E-04                           #ss Layer 1                    
INTERNAL               1 (20G15.6)  -1 #sy Layer 1                    
   3.000000E-02   3.000000E-02   3.000000E-02   3.000000E-02   3.000000E-02   3.000000E-02   3.000000E-02   3.000000E-02   3.000000E-02   3.000000E-02   3.000000E-02   3.000000E-02   3.058554E-02   9.512895E-02   3.008642E-02   3.000000E-02   3.000000E-02   3.000000E-02  -9.999000E+03  -9.999000E+03
   3.000000E-02   3.000000E-02   3.000000E-02   3.000000E-02   3.000000E-02   3.000000E-02   3.000000E-02   3.000000E-02   3.000000E-02   3.000000E-02   3.000000E-02   3.000000E-02   3.000000E-02   6.391461E-02   3.000000E-02   3.000000E-02   3.000000E-02   3.000000E-02  -9.999000E+03  -9.999000E+03
   3.000000E-02   3.427641E-02   3.033865E-02   3.000000E-02   3.000000E-02   3.539436E-02   4.703633E-02   4.173604E-02   3.000000E-02   3.000000E-02   3.000000E-02   3.000000E-02   3.000000E-02   3.000000E-02   3.000000E-02   3.000000E-02   3.000000E-02   3.000000E-02  -9.999000E+03  -9.999000E+03
   3.000000E-02   3.000000E-02   3.000000E-02   3.000000E-02   3.000000E-02   3.910993E-02   6.103701E-02   4.258776E-02   3.000000E-02   3.000000E-02   3.000000E-02   3.000000E-02   3.000000E-02   3.000000E-02   3.000000E-02   3.000000E-02   3.000000E-02   3.000000E-02  -9.999000E+03  -9.999000E+03
   3.000000E-02   3.000000E-02   3.000000E-02   3.000000E-02   3.000000E-02   3.000000E-02   3.000000E-02   3.000000E-02   3.000000E-02   3.000000E-02   3.000000E-02   3.000000E-02   3.000000E-02   3.000000E-02   3.000000E-02   3.000000E-02   3.000000E-02   3.000000E-02   3.000000E-02   3.000000E-02
   3.000000E-02   3.000000E-02   3.000000E-02   3.000000E-02   3.000000E-02   3.000000E-02   3.000000E-02   3.000000E-02   3.000000E-02   3.000000E-02   3.000000E-02   3.000000E-02   3.000000E-02   3.000000E-02   3.000000E-02   3.000000E-02   3.000000E-02   3.000000E-02   3.000000E-02   3.000000E-02
   3.000000E-02   3.000000E-02   3.000000E-02   3.000000E-02   3.000000E-02   3.000000E-02   3.000000E-02   3.000000E-02   3.000000E-02   3.000000E-02   3.000000E-02   3.000000E-02   3.000000E-02   3.000000E-02   3.000000E-02   3.000000E-02   3.000000E-02   3.000000E-02  -9.999000E+03  -9.999000E+03
   3.000000E-02   3.000000E-02   3.000000E-02   3.000000E-02   3.000000E-02   3.000000E-02   3.000000E-02   3.000000E-02   3.000000E-02   3.000000E-02   3.000000E-02   3.000000E-02   3.000000E-02   3.000000E-02   3.000000E-02   3.000000E-02   3.000000E-02   3.000000E-02  -9.999000E+03  -9.999000E+03
   3.000000E-02   3.000000E-02   3.000000E-02   3.000000E-02   3.000000E-02   3.000000E-02   3.000000E-02   3.000000E-02   3.000000E-02   3.000000E-02   3.000000E-02   3.000000E-02   3.000000E-02   3.000000E-02   3.000000E-02   3.000000E-02   3.000000E-02   3.000000E-02   3.000000E-02   3.000000E-02
   3.000000E-02   3.000000E-02   3.000000E-02   3.000000E-02   3.000000E-02   3.000000E-02   3.000000E-02   3.000000E-02   3.000000E-02   3.000000E-02   3.000000E-02   3.000000E-02   3.000000E-02   3.000000E-02   3.000000E-02   3.000000E-02   3.000000E-02   3.000000E-02   3.000000E-02   3.000000E-02
