# Basic package file for MODFLOW, generated by Flopy.
 FREE
INTERNAL               1   (20I10)  -1 #ibound Layer 1                
         0         0         0         0         0         1         1         1         1         1         1         1         1         1         1         1         1         1         0         0
         0         0         0         0         1         1         1         1         1         1         1         1         1         1         1         1         1         1         0         0
         0         0         0         0         1         1         1         1         1         1         1         1         1         1         1         1         1         1         0         0
         0         0         0         1         1         1         1         1         1         1         1         1         1         1         1         1         1         1         0         0
         0         0         1         1         1         1         1         1         1         1         1         1         1         1         1         1         1         1         1         0
         0         1         1         1         1         1         1         1         1         1         1         1         1         1         1         1         1         1         1         0
         0         1         1         1         1         1         1         1         1         1         1         1         1         1         1         1         1         1         0         0
         0         1         1         1         1         1         1         1         1         1         1         1         1         1         1         1         1         1         0         0
         0         0         1         1         1         1         1         1         1         1         1         1         1         1         1         1         1         1         1         1
         0         0         1         1         1         1         1         1         1         1         1         1         1         1         1         1         1         1         1         1
              0
INTERNAL               1 (20G15.6)  -1 #strt Layer 1                  
   1.000000E+01   1.000000E+00   1.000000E+00   1.000000E+00   1.000000E+00   1.000000E+00   1.000000E+00   1.000000E+00   1.000000E+00   1.000000E+00   1.000000E+00   1.000000E+00   1.000000E+00   1.000000E+00   1.000000E+00   1.000000E+00   1.000000E+00   1.000000E+00   1.000000E+00   0.000000E+00
   1.000000E+01   1.000000E+00   1.000000E+00   1.000000E+00   1.000000E+00   1.000000E+00   1.000000E+00   1.000000E+00   1.000000E+00   1.000000E+00   1.000000E+00   1.000000E+00   1.000000E+00   1.000000E+00   1.000000E+00   1.000000E+00   1.000000E+00   1.000000E+00   1.000000E+00   0.000000E+00
   1.000000E+01   1.000000E+00   1.000000E+00   1.000000E+00   1.000000E+00   1.000000E+00   1.000000E+00   1.000000E+00   1.000000E+00   1.000000E+00   1.000000E+00   1.000000E+00   1.000000E+00   1.000000E+00   1.000000E+00   1.000000E+00   1.000000E+00   1.000000E+00   1.000000E+00   0.000000E+00
   1.000000E+01   1.000000E+00   1.000000E+00   1.000000E+00   1.000000E+00   1.000000E+00   1.000000E+00   1.000000E+00   1.000000E+00   1.000000E+00   1.000000E+00   1.000000E+00   1.000000E+00   1.000000E+00   1.000000E+00   1.000000E+00   1.000000E+00   1.000000E+00   1.000000E+00   0.000000E+00
   1.000000E+01   1.000000E+00   1.000000E+00   1.000000E+00   1.000000E+00   1.000000E+00   1.000000E+00   1.000000E+00   1.000000E+00   1.000000E+00   1.000000E+00   1.000000E+00   1.000000E+00   1.000000E+00   1.000000E+00   1.000000E+00   1.000000E+00   1.000000E+00   1.000000E+00   0.000000E+00
   1.000000E+01   1.000000E+00   1.000000E+00   1.000000E+00   1.000000E+00   1.000000E+00   1.000000E+00   1.000000E+00   1.000000E+00   1.000000E+00   1.000000E+00   1.000000E+00   1.000000E+00   1.000000E+00   1.000000E+00   1.000000E+00   1.000000E+00   1.000000E+00   1.000000E+00   0.000000E+00
   1.000000E+01   1.000000E+00   1.000000E+00   1.000000E+00   1.000000E+00   1.000000E+00   1.000000E+00   1.000000E+00   1.000000E+00   1.000000E+00   1.000000E+00   1.000000E+00   1.000000E+00   1.000000E+00   1.000000E+00   1.000000E+00   1.000000E+00   1.000000E+00   1.000000E+00   0.000000E+00
   1.000000E+01   1.000000E+00   1.000000E+00   1.000000E+00   1.000000E+00   1.000000E+00   1.000000E+00   1.000000E+00   1.000000E+00   1.000000E+00   1.000000E+00   1.000000E+00   1.000000E+00   1.000000E+00   1.000000E+00   1.000000E+00   1.000000E+00   1.000000E+00   1.000000E+00   0.000000E+00
   1.000000E+01   1.000000E+00   1.000000E+00   1.000000E+00   1.000000E+00   1.000000E+00   1.000000E+00   1.000000E+00   1.000000E+00   1.000000E+00   1.000000E+00   1.000000E+00   1.000000E+00   1.000000E+00   1.000000E+00   1.000000E+00   1.000000E+00   1.000000E+00   1.000000E+00   0.000000E+00
   1.000000E+01   1.000000E+00   1.000000E+00   1.000000E+00   1.000000E+00   1.000000E+00   1.000000E+00   1.000000E+00   1.000000E+00   1.000000E+00   1.000000E+00   1.000000E+00   1.000000E+00   1.000000E+00   1.000000E+00   1.000000E+00   1.000000E+00   1.000000E+00   1.000000E+00   0.000000E+00
