# RCH for MODFLOW, generated by Flopy.
         3         0
         1         1 #Recharge array for stress period 1
INTERNAL               1 (20G15.6)  -1 #rech_1                        
   4.881575E-07   3.324120E-07   3.324120E-07   3.324120E-07   3.324120E-07   3.324120E-07   3.324120E-07   3.324120E-07   3.324120E-07   3.324120E-07   3.324120E-07   3.324120E-07   3.324120E-07   3.324120E-07   3.324120E-07   3.324120E-07   3.324120E-07   3.324120E-07   3.324120E-07   3.324120E-07
   4.881575E-07   3.324120E-07   3.324120E-07   3.324120E-07   3.324120E-07   3.324120E-07   3.324120E-07   3.324120E-07   3.324120E-07   3.324120E-07   3.324120E-07   3.324120E-07   3.324120E-07   3.324120E-07   3.324120E-07   3.324120E-07   3.324120E-07   3.324120E-07   3.324120E-07   3.324120E-07
   4.881575E-07   3.324120E-07   3.324120E-07   3.324120E-07   3.324120E-07   3.324120E-07   3.324120E-07   3.324120E-07   3.324120E-07   3.324120E-07   3.324120E-07   3.324120E-07   3.324120E-07   3.324120E-07   3.324120E-07   3.324120E-07   3.324120E-07   3.324120E-07   3.324120E-07   3.324120E-07
   4.881575E-07   3.324120E-07   3.324120E-07   3.324120E-07   3.324120E-07   3.324120E-07   3.324120E-07   3.324120E-07   3.324120E-07   3.324120E-07   3.324120E-07   3.324120E-07   3.324120E-07   3.324120E-07   3.324120E-07   3.324120E-07   3.324120E-07   3.324120E-07   3.324120E-07   3.324120E-07
   4.881575E-07   3.324120E-07   3.324120E-07   3.324120E-07   3.324120E-07   3.324120E-07   3.324120E-07   3.324120E-07   3.324120E-07   3.324120E-07   3.324120E-07   3.324120E-07   3.324120E-07   3.324120E-07   3.324120E-07   3.324120E-07   3.324120E-07   3.324120E-07   3.324120E-07   3.324120E-07
   4.881575E-07   3.324120E-07   3.324120E-07   3.324120E-07   3.324120E-07   3.324120E-07   3.324120E-07   3.324120E-07   3.324120E-07   3.324120E-07   3.324120E-07   3.324120E-07   3.324120E-07   3.324120E-07   3.324120E-07   3.324120E-07   3.324120E-07   3.324120E-07   3.324120E-07   3.324120E-07
   2.946379E-07   3.324120E-07   3.324120E-07   3.324120E-07   3.324120E-07   3.324120E-07   3.324120E-07   3.324120E-07   3.324120E-07   3.324120E-07   3.324120E-07   3.324120E-07   3.324120E-07   3.324120E-07   3.324120E-07   3.324120E-07   3.324120E-07   3.324120E-07   3.324120E-07   3.324120E-07
   2.946379E-07   3.324120E-07   3.324120E-07   3.324120E-07   3.324120E-07   3.324120E-07   3.324120E-07   3.324120E-07   3.324120E-07   3.324120E-07   3.324120E-07   3.324120E-07   3.324120E-07   3.324120E-07   3.324120E-07   3.324120E-07   3.324120E-07   3.324120E-07   3.324120E-07   3.324120E-07
   2.946379E-07   2.946379E-07   3.324120E-07   3.324120E-07   3.324120E-07   3.324120E-07   3.324120E-07   3.324120E-07   3.324120E-07   3.324120E-07   3.324120E-07   3.324120E-07   3.324120E-07   3.324120E-07   3.324120E-07   3.324120E-07   3.324120E-07   3.324120E-07   3.324120E-07   3.324120E-07
   2.946379E-07   2.946379E-07   3.324120E-07   3.324120E-07   3.324120E-07   3.324120E-07   3.324120E-07   3.324120E-07   3.324120E-07   3.324120E-07   3.324120E-07   3.324120E-07   3.324120E-07   3.324120E-07   3.324120E-07   3.324120E-07   3.324120E-07   3.324120E-07   3.324120E-07   3.324120E-07
         1        -1 #Recharge array for stress period 2
INTERNAL               1 (20G15.6)  -1 #rech_2                        
   4.283001E-07   4.631685E-07   4.631685E-07   4.631685E-07   4.631685E-07   4.631685E-07   4.631685E-07   4.631685E-07   4.631685E-07   4.631685E-07   4.631685E-07   4.631685E-07   4.631685E-07   4.631685E-07   4.631685E-07   4.631685E-07   4.631685E-07   4.631685E-07   4.631685E-07   4.631685E-07
   4.283001E-07   4.631685E-07   4.631685E-07   4.631685E-07   4.631685E-07   4.631685E-07   4.631685E-07   4.631685E-07   4.631685E-07   4.631685E-07   4.631685E-07   4.631685E-07   4.631685E-07   4.631685E-07   4.631685E-07   4.631685E-07   4.631685E-07   4.631685E-07   4.631685E-07   4.631685E-07
   4.283001E-07   4.631685E-07   4.631685E-07   4.631685E-07   4.631685E-07   4.631685E-07   4.631685E-07   4.631685E-07   4.631685E-07   4.631685E-07   4.631685E-07   4.631685E-07   4.631685E-07   4.631685E-07   4.631685E-07   4.631685E-07   4.631685E-07   4.631685E-07   4.631685E-07   4.631685E-07
   4.283001E-07   4.631685E-07   4.631685E-07   4.631685E-07   4.631685E-07   4.631685E-07   4.631685E-07   4.631685E-07   4.631685E-07   4.631685E-07   4.631685E-07   4.631685E-07   4.631685E-07   4.631685E-07   4.631685E-07   4.631685E-07   4.631685E-07   4.631685E-07   4.631685E-07   4.631685E-07
   4.283001E-07   4.631685E-07   4.631685E-07   4.631685E-07   4.631685E-07   4.631685E-07   4.631685E-07   4.631685E-07   4.631685E-07   4.631685E-07   4.631685E-07   4.631685E-07   4.631685E-07   4.631685E-07   4.631685E-07   4.631685E-07   4.631685E-07   4.631685E-07   4.631685E-07   4.631685E-07
   4.283001E-07   4.631685E-07   4.631685E-07   4.631685E-07   4.631685E-07   4.631685E-07   4.631685E-07   4.631685E-07   4.631685E-07   4.631685E-07   4.631685E-07   4.631685E-07   4.631685E-07   4.631685E-07   4.631685E-07   4.631685E-07   4.631685E-07   4.631685E-07   4.631685E-07   4.631685E-07
   4.480588E-07   4.631685E-07   4.631685E-07   4.631685E-07   4.631685E-07   4.631685E-07   4.631685E-07   4.631685E-07   4.631685E-07   4.631685E-07   4.631685E-07   4.631685E-07   4.631685E-07   4.631685E-07   4.631685E-07   4.631685E-07   4.631685E-07   4.631685E-07   4.631685E-07   4.631685E-07
   4.480588E-07   4.631685E-07   4.631685E-07   4.631685E-07   4.631685E-07   4.631685E-07   4.631685E-07   4.631685E-07   4.631685E-07   4.631685E-07   4.631685E-07   4.631685E-07   4.631685E-07   4.631685E-07   4.631685E-07   4.631685E-07   4.631685E-07   4.631685E-07   4.631685E-07   4.631685E-07
   4.480588E-07   4.480588E-07   4.631685E-07   4.631685E-07   4.631685E-07   4.631685E-07   4.631685E-07   4.631685E-07   4.631685E-07   4.631685E-07   4.631685E-07   4.631685E-07   4.631685E-07   4.631685E-07   4.631685E-07   4.631685E-07   4.631685E-07   4.631685E-07   4.631685E-07   4.631685E-07
   4.480588E-07   4.480588E-07   4.631685E-07   4.631685E-07   4.631685E-07   4.631685E-07   4.631685E-07   4.631685E-07   4.631685E-07   4.631685E-07   4.631685E-07   4.631685E-07   4.631685E-07   4.631685E-07   4.631685E-07   4.631685E-07   4.631685E-07   4.631685E-07   4.631685E-07   4.631685E-07
         1        -1 #Recharge array for stress period 3
INTERNAL               1 (20G15.6)  -1 #rech_3                        
   2.493090E-07   2.818528E-07   2.818528E-07   2.818528E-07   2.818528E-07   2.818528E-07   2.818528E-07   2.818528E-07   2.818528E-07   2.818528E-07   2.818528E-07   2.818528E-07   2.818528E-07   2.818528E-07   2.818528E-07   2.818528E-07   2.818528E-07   2.818528E-07   2.818528E-07   2.818528E-07
   2.493090E-07   2.818528E-07   2.818528E-07   2.818528E-07   2.818528E-07   2.818528E-07   2.818528E-07   2.818528E-07   2.818528E-07   2.818528E-07   2.818528E-07   2.818528E-07   2.818528E-07   2.818528E-07   2.818528E-07   2.818528E-07   2.818528E-07   2.818528E-07   2.818528E-07   2.818528E-07
   2.493090E-07   2.818528E-07   2.818528E-07   2.818528E-07   2.818528E-07   2.818528E-07   2.818528E-07   2.818528E-07   2.818528E-07   2.818528E-07   2.818528E-07   2.818528E-07   2.818528E-07   2.818528E-07   2.818528E-07   2.818528E-07   2.818528E-07   2.818528E-07   2.818528E-07   2.818528E-07
   2.493090E-07   2.818528E-07   2.818528E-07   2.818528E-07   2.818528E-07   2.818528E-07   2.818528E-07   2.818528E-07   2.818528E-07   2.818528E-07   2.818528E-07   2.818528E-07   2.818528E-07   2.818528E-07   2.818528E-07   2.818528E-07   2.818528E-07   2.818528E-07   2.818528E-07   2.818528E-07
   2.493090E-07   2.818528E-07   2.818528E-07   2.818528E-07   2.818528E-07   2.818528E-07   2.818528E-07   2.818528E-07   2.818528E-07   2.818528E-07   2.818528E-07   2.818528E-07   2.818528E-07   2.818528E-07   2.818528E-07   2.818528E-07   2.818528E-07   2.818528E-07   2.818528E-07   2.818528E-07
   2.493090E-07   2.818528E-07   2.818528E-07   2.818528E-07   2.818528E-07   2.818528E-07   2.818528E-07   2.818528E-07   2.818528E-07   2.818528E-07   2.818528E-07   2.818528E-07   2.818528E-07   2.818528E-07   2.818528E-07   2.818528E-07   2.818528E-07   2.818528E-07   2.818528E-07   2.818528E-07
   2.644186E-07   2.818528E-07   2.818528E-07   2.818528E-07   2.818528E-07   2.818528E-07   2.818528E-07   2.818528E-07   2.818528E-07   2.818528E-07   2.818528E-07   2.818528E-07   2.818528E-07   2.818528E-07   2.818528E-07   2.818528E-07   2.818528E-07   2.818528E-07   2.818528E-07   2.818528E-07
   2.644186E-07   2.818528E-07   2.818528E-07   2.818528E-07   2.818528E-07   2.818528E-07   2.818528E-07   2.818528E-07   2.818528E-07   2.818528E-07   2.818528E-07   2.818528E-07   2.818528E-07   2.818528E-07   2.818528E-07   2.818528E-07   2.818528E-07   2.818528E-07   2.818528E-07   2.818528E-07
   2.644186E-07   2.644186E-07   2.818528E-07   2.818528E-07   2.818528E-07   2.818528E-07   2.818528E-07   2.818528E-07   2.818528E-07   2.818528E-07   2.818528E-07   2.818528E-07   2.818528E-07   2.818528E-07   2.818528E-07   2.818528E-07   2.818528E-07   2.818528E-07   2.818528E-07   2.818528E-07
   2.644186E-07   2.644186E-07   2.818528E-07   2.818528E-07   2.818528E-07   2.818528E-07   2.818528E-07   2.818528E-07   2.818528E-07   2.818528E-07   2.818528E-07   2.818528E-07   2.818528E-07   2.818528E-07   2.818528E-07   2.818528E-07   2.818528E-07   2.818528E-07   2.818528E-07   2.818528E-07
