# RIV for MODFLOW, generated by Flopy.
        22         0
        22         0
        1         1        14 -6.413170e-01  3.333696e+03 -3.000000e+00
        1         2        14 -6.413170e-01  3.302178e+03 -3.000000e+00
        1         3        14 -6.413170e-01  2.941216e+03 -3.000000e+00
        1         4         6 -6.413170e-01  2.594588e+03 -3.000000e+00
        1         4         7 -6.413170e-01  2.654466e+03 -3.000000e+00
        1         4         8 -6.413170e-01  2.733713e+03 -3.000000e+00
        1         4         9 -6.413170e-01  3.006676e+03 -3.000000e+00
        1         4        10 -6.413170e-01  2.766151e+03 -3.000000e+00
        1         4        11 -6.413170e-01  2.487212e+03 -3.000000e+00
        1         4        12 -6.413170e-01  1.220660e+03 -3.000000e+00
        1         4        14 -6.413170e-01  3.630705e+03 -3.000000e+00
        1         5         3 -6.413170e-01  1.726629e+02 -3.000000e+00
        1         5         4 -6.413170e-01  5.051825e+02 -3.000000e+00
        1         5         5 -6.413170e-01  3.266635e+03 -3.000000e+00
        1         5         6 -6.413170e-01  1.418167e+03 -3.000000e+00
        1         5        12 -6.413170e-01  1.968883e+03 -3.000000e+00
        1         5        13 -6.413170e-01  4.005648e+03 -3.000000e+00
        1         5        14 -6.413170e-01  1.261747e+03 -3.000000e+00
        1         6         2 -6.413170e-01  3.065591e+03 -3.000000e+00
        1         6         3 -6.413170e-01  4.538312e+03 -3.000000e+00
        1         6         4 -6.413170e-01  2.545936e+03 -3.000000e+00
        1         6         5 -6.413170e-01  3.236828e+02 -3.000000e+00
        22         0
        1         1        14 -7.660771e-01  3.333696e+03 -3.000000e+00
        1         2        14 -7.660771e-01  3.302178e+03 -3.000000e+00
        1         3        14 -7.660771e-01  2.941216e+03 -3.000000e+00
        1         4         6 -7.660771e-01  2.594588e+03 -3.000000e+00
        1         4         7 -7.660771e-01  2.654466e+03 -3.000000e+00
        1         4         8 -7.660771e-01  2.733713e+03 -3.000000e+00
        1         4         9 -7.660771e-01  3.006676e+03 -3.000000e+00
        1         4        10 -7.660771e-01  2.766151e+03 -3.000000e+00
        1         4        11 -7.660771e-01  2.487212e+03 -3.000000e+00
        1         4        12 -7.660771e-01  1.220660e+03 -3.000000e+00
        1         4        14 -7.660771e-01  3.630705e+03 -3.000000e+00
        1         5         3 -7.660771e-01  1.726629e+02 -3.000000e+00
        1         5         4 -7.660771e-01  5.051825e+02 -3.000000e+00
        1         5         5 -7.660771e-01  3.266635e+03 -3.000000e+00
        1         5         6 -7.660771e-01  1.418167e+03 -3.000000e+00
        1         5        12 -7.660771e-01  1.968883e+03 -3.000000e+00
        1         5        13 -7.660771e-01  4.005648e+03 -3.000000e+00
        1         5        14 -7.660771e-01  1.261747e+03 -3.000000e+00
        1         6         2 -7.660771e-01  3.065591e+03 -3.000000e+00
        1         6         3 -7.660771e-01  4.538312e+03 -3.000000e+00
        1         6         4 -7.660771e-01  2.545936e+03 -3.000000e+00
        1         6         5 -7.660771e-01  3.236828e+02 -3.000000e+00
        22         0
        1         1        14 -1.863742e+00  3.333696e+03 -3.000000e+00
        1         2        14 -1.863742e+00  3.302178e+03 -3.000000e+00
        1         3        14 -1.863742e+00  2.941216e+03 -3.000000e+00
        1         4         6 -1.863742e+00  2.594588e+03 -3.000000e+00
        1         4         7 -1.863742e+00  2.654466e+03 -3.000000e+00
        1         4         8 -1.863742e+00  2.733713e+03 -3.000000e+00
        1         4         9 -1.863742e+00  3.006676e+03 -3.000000e+00
        1         4        10 -1.863742e+00  2.766151e+03 -3.000000e+00
        1         4        11 -1.863742e+00  2.487212e+03 -3.000000e+00
        1         4        12 -1.863742e+00  1.220660e+03 -3.000000e+00
        1         4        14 -1.863742e+00  3.630705e+03 -3.000000e+00
        1         5         3 -1.863742e+00  1.726629e+02 -3.000000e+00
        1         5         4 -1.863742e+00  5.051825e+02 -3.000000e+00
        1         5         5 -1.863742e+00  3.266635e+03 -3.000000e+00
        1         5         6 -1.863742e+00  1.418167e+03 -3.000000e+00
        1         5        12 -1.863742e+00  1.968883e+03 -3.000000e+00
        1         5        13 -1.863742e+00  4.005648e+03 -3.000000e+00
        1         5        14 -1.863742e+00  1.261747e+03 -3.000000e+00
        1         6         2 -1.863742e+00  3.065591e+03 -3.000000e+00
        1         6         3 -1.863742e+00  4.538312e+03 -3.000000e+00
        1         6         4 -1.863742e+00  2.545936e+03 -3.000000e+00
        1         6         5 -1.863742e+00  3.236828e+02 -3.000000e+00
