# UPW for MODFLOW-NWT, generated by Flopy.
         0    -1E+04         0         1 
         1
         1
         1
         1
         0
INTERNAL               1 (20G15.6)  -1 #hk Layer 1                    
   1.011090E+00   1.011377E+00   1.008786E+00   1.002867E+00   9.939489E-01   9.830554E-01   9.716394E-01   9.612724E-01   9.533715E-01   9.489963E-01   9.487172E-01   9.525511E-01   1.032231E+00   9.091813E+00   9.919567E-01   9.918096E-01   1.000749E+00   8.391567E-01   1.009743E-02   1.009834E-02
   1.015101E+00   1.015732E+00   1.012619E+00   1.005159E+00   9.937785E-01   9.798197E-01   9.651715E-01   9.518559E-01   9.416766E-01   9.359698E-01   9.354530E-01   9.401562E-01   9.494225E-01   5.156637E+00   9.760826E-01   9.897675E-01   1.001178E+00   6.956785E-01   1.012655E-02   1.012736E-02
   1.019210E+00   1.051498E+00   1.019380E+00   1.008217E+00   9.947332E-01   1.656469E+00   3.064678E+00   2.370072E+00   9.324215E-01   9.254636E-01   9.246296E-01   9.299649E-01   9.407185E-01   9.554152E-01   9.720151E-01   9.881866E-01   1.001705E+00   7.318826E-01   1.015290E-02   1.015336E-02
   1.022949E+00   1.024669E+00   1.021248E+00   1.011783E+00   9.968390E-01   2.124074E+00   4.784055E+00   2.463167E+00   9.268638E-01   9.188692E-01   9.176637E-01   9.233103E-01   9.349982E-01   9.511155E-01   9.694139E-01   9.873011E-01   1.002283E+00   7.613143E-01   1.017305E-02   1.017293E-02
   1.025825E+00   1.028168E+00   1.025021E+00   1.015371E+00   9.997871E-01   9.802288E-01   9.594575E-01   9.403866E-01   9.255680E-01   9.168649E-01   9.152808E-01   9.208971E-01   9.328797E-01   9.495537E-01   9.685700E-01   7.416629E-01   8.335052E-02   5.424913E-01   2.371507E-01   1.384078E-02
   1.027383E+00   1.030260E+00   1.027606E+00   1.018343E+00   1.003004E+00   9.835393E-01   9.627256E-01   9.435022E-01   9.284495E-01   9.194567E-01   9.175491E-01   9.228246E-01   9.344631E-01   9.508023E-01   9.695056E-01   6.769370E-01   3.470215E-01   6.628753E-01   3.334554E-01   1.566631E-01
   1.027291E+00   1.030499E+00   1.028452E+00   1.020071E+00   1.005816E+00   9.875087E-01   9.677783E-01   9.494288E-01   9.349390E-01   9.261367E-01   9.240245E-01   9.287140E-01   9.394341E-01   9.546098E-01   9.720296E-01   9.891373E-01   9.585466E-01   1.390813E-01   1.017653E-02   1.017433E-02
   1.025443E+00   1.028698E+00   1.027262E+00   1.020126E+00   1.007653E+00   9.914364E-01   9.738106E-01   9.572942E-01   9.441376E-01   9.360183E-01   9.338694E-01   9.378094E-01   9.471496E-01   9.604720E-01   9.757926E-01   9.908332E-01   1.001564E+00   3.431000E-01   1.015790E-02   1.015537E-02
   1.022048E+00   1.025053E+00   1.024146E+00   1.018448E+00   1.008227E+00   9.947773E-01   9.800328E-01   9.661091E-01   9.549217E-01   9.479179E-01   9.459155E-01   9.490314E-01   9.566857E-01   9.676755E-01   9.803267E-01   9.927332E-01   1.003089E+00   9.721804E-01   6.746443E-01   4.389177E-01
   1.017632E+00   1.020152E+00   1.019642E+00   1.015403E+00   1.007611E+00   9.972427E-01   9.857831E-01   9.748804E-01   9.660491E-01   9.604499E-01   9.587495E-01   9.610534E-01   9.669063E-01   9.753572E-01   9.850898E-01   9.946200E-01   1.002556E+00   1.007893E+00   1.010269E+00   1.010046E+00
CONSTANT    1.000000E+00                           #vka Layer 1                   
CONSTANT    1.000000E-04                           #ss Layer 1                    
INTERNAL               1 (20G15.6)  -1 #sy Layer 1                    
   3.000000E-02   3.000000E-02   3.000000E-02   3.000000E-02   3.000000E-02   3.000000E-02   3.000000E-02   3.000000E-02   3.000000E-02   3.000000E-02   3.000000E-02   3.000000E-02   3.058554E-02   9.512895E-02   3.008642E-02   3.000000E-02   3.000000E-02   3.000000E-02  -9.999000E+03  -9.999000E+03
   3.000000E-02   3.000000E-02   3.000000E-02   3.000000E-02   3.000000E-02   3.000000E-02   3.000000E-02   3.000000E-02   3.000000E-02   3.000000E-02   3.000000E-02   3.000000E-02   3.000000E-02   6.391461E-02   3.000000E-02   3.000000E-02   3.000000E-02   3.000000E-02  -9.999000E+03  -9.999000E+03
   3.000000E-02   3.427641E-02   3.033865E-02   3.000000E-02   3.000000E-02   3.539436E-02   4.703633E-02   4.173604E-02   3.000000E-02   3.000000E-02   3.000000E-02   3.000000E-02   3.000000E-02   3.000000E-02   3.000000E-02   3.000000E-02   3.000000E-02   3.000000E-02  -9.999000E+03  -9.999000E+03
   3.000000E-02   3.000000E-02   3.000000E-02   3.000000E-02   3.000000E-02   3.910993E-02   6.103701E-02   4.258776E-02   3.000000E-02   3.000000E-02   3.000000E-02   3.000000E-02   3.000000E-02   3.000000E-02   3.000000E-02   3.000000E-02   3.000000E-02   3.000000E-02  -9.999000E+03  -9.999000E+03
   3.000000E-02   3.000000E-02   3.000000E-02   3.000000E-02   3.000000E-02   3.000000E-02   3.000000E-02   3.000000E-02   3.000000E-02   3.000000E-02   3.000000E-02   3.000000E-02   3.000000E-02   3.000000E-02   3.000000E-02   3.000000E-02   3.000000E-02   3.000000E-02   3.000000E-02   3.000000E-02
   3.000000E-02   3.000000E-02   3.000000E-02   3.000000E-02   3.000000E-02   3.000000E-02   3.000000E-02   3.000000E-02   3.000000E-02   3.000000E-02   3.000000E-02   3.000000E-02   3.000000E-02   3.000000E-02   3.000000E-02   3.000000E-02   3.000000E-02   3.000000E-02   3.000000E-02   3.000000E-02
   3.000000E-02   3.000000E-02   3.000000E-02   3.000000E-02   3.000000E-02   3.000000E-02   3.000000E-02   3.000000E-02   3.000000E-02   3.000000E-02   3.000000E-02   3.000000E-02   3.000000E-02   3.000000E-02   3.000000E-02   3.000000E-02   3.000000E-02   3.000000E-02  -9.999000E+03  -9.999000E+03
   3.000000E-02   3.000000E-02   3.000000E-02   3.000000E-02   3.000000E-02   3.000000E-02   3.000000E-02   3.000000E-02   3.000000E-02   3.000000E-02   3.000000E-02   3.000000E-02   3.000000E-02   3.000000E-02   3.000000E-02   3.000000E-02   3.000000E-02   3.000000E-02  -9.999000E+03  -9.999000E+03
   3.000000E-02   3.000000E-02   3.000000E-02   3.000000E-02   3.000000E-02   3.000000E-02   3.000000E-02   3.000000E-02   3.000000E-02   3.000000E-02   3.000000E-02   3.000000E-02   3.000000E-02   3.000000E-02   3.000000E-02   3.000000E-02   3.000000E-02   3.000000E-02   3.000000E-02   3.000000E-02
   3.000000E-02   3.000000E-02   3.000000E-02   3.000000E-02   3.000000E-02   3.000000E-02   3.000000E-02   3.000000E-02   3.000000E-02   3.000000E-02   3.000000E-02   3.000000E-02   3.000000E-02   3.000000E-02   3.000000E-02   3.000000E-02   3.000000E-02   3.000000E-02   3.000000E-02   3.000000E-02
