# Output control package file for MODFLOW, generated by Flopy. Output control by words option
HEAD PRINT FORMAT   0
HEAD SAVE UNIT    51
DRAWDOWN PRINT FORMAT   0
DRAWDOWN SAVE UNIT    52

PERIOD     1 STEP     1
  SAVE HEAD
  SAVE DRAWDOWN
  SAVE BUDGET
  PRINT HEAD
  PRINT BUDGET

PERIOD     2 STEP     1
  SAVE HEAD
  SAVE DRAWDOWN
  SAVE BUDGET
  PRINT HEAD
  PRINT BUDGET

PERIOD     2 STEP     2
  SAVE HEAD
  SAVE DRAWDOWN
  SAVE BUDGET
  PRINT HEAD
  PRINT BUDGET

PERIOD     2 STEP     3
  SAVE HEAD
  SAVE DRAWDOWN
  SAVE BUDGET
  PRINT HEAD
  PRINT BUDGET

PERIOD     2 STEP     4
  SAVE HEAD
  SAVE DRAWDOWN
  SAVE BUDGET
  PRINT HEAD
  PRINT BUDGET

PERIOD     2 STEP     5
  SAVE HEAD
  SAVE DRAWDOWN
  SAVE BUDGET
  PRINT HEAD
  PRINT BUDGET

PERIOD     2 STEP     6
  SAVE HEAD
  SAVE DRAWDOWN
  SAVE BUDGET
  PRINT HEAD
  PRINT BUDGET

PERIOD     2 STEP     7
  SAVE HEAD
  SAVE DRAWDOWN
  SAVE BUDGET
  PRINT HEAD
  PRINT BUDGET

PERIOD     2 STEP     8
  SAVE HEAD
  SAVE DRAWDOWN
  SAVE BUDGET
  PRINT HEAD
  PRINT BUDGET

PERIOD     2 STEP     9
  SAVE HEAD
  SAVE DRAWDOWN
  SAVE BUDGET
  PRINT HEAD
  PRINT BUDGET

PERIOD     2 STEP    10
  SAVE HEAD
  SAVE DRAWDOWN
  SAVE BUDGET
  PRINT HEAD
  PRINT BUDGET

PERIOD     2 STEP    11
  SAVE HEAD
  SAVE DRAWDOWN
  SAVE BUDGET
  PRINT HEAD
  PRINT BUDGET

PERIOD     2 STEP    12
  SAVE HEAD
  SAVE DRAWDOWN
  SAVE BUDGET
  PRINT HEAD
  PRINT BUDGET

PERIOD     2 STEP    13
  SAVE HEAD
  SAVE DRAWDOWN
  SAVE BUDGET
  PRINT HEAD
  PRINT BUDGET

PERIOD     2 STEP    14
  SAVE HEAD
  SAVE DRAWDOWN
  SAVE BUDGET
  PRINT HEAD
  PRINT BUDGET

PERIOD     2 STEP    15
  SAVE HEAD
  SAVE DRAWDOWN
  SAVE BUDGET
  PRINT HEAD
  PRINT BUDGET

PERIOD     2 STEP    16
  SAVE HEAD
  SAVE DRAWDOWN
  SAVE BUDGET
  PRINT HEAD
  PRINT BUDGET

PERIOD     2 STEP    17
  SAVE HEAD
  SAVE DRAWDOWN
  SAVE BUDGET
  PRINT HEAD
  PRINT BUDGET

PERIOD     2 STEP    18
  SAVE HEAD
  SAVE DRAWDOWN
  SAVE BUDGET
  PRINT HEAD
  PRINT BUDGET

PERIOD     2 STEP    19
  SAVE HEAD
  SAVE DRAWDOWN
  SAVE BUDGET
  PRINT HEAD
  PRINT BUDGET

PERIOD     2 STEP    20
  SAVE HEAD
  SAVE DRAWDOWN
  SAVE BUDGET
  PRINT HEAD
  PRINT BUDGET

PERIOD     2 STEP    21
  SAVE HEAD
  SAVE DRAWDOWN
  SAVE BUDGET
  PRINT HEAD
  PRINT BUDGET

PERIOD     2 STEP    22
  SAVE HEAD
  SAVE DRAWDOWN
  SAVE BUDGET
  PRINT HEAD
  PRINT BUDGET

PERIOD     2 STEP    23
  SAVE HEAD
  SAVE DRAWDOWN
  SAVE BUDGET
  PRINT HEAD
  PRINT BUDGET

PERIOD     2 STEP    24
  SAVE HEAD
  SAVE DRAWDOWN
  SAVE BUDGET
  PRINT HEAD
  PRINT BUDGET

PERIOD     2 STEP    25
  SAVE HEAD
  SAVE DRAWDOWN
  SAVE BUDGET
  PRINT HEAD
  PRINT BUDGET

PERIOD     2 STEP    26
  SAVE HEAD
  SAVE DRAWDOWN
  SAVE BUDGET
  PRINT HEAD
  PRINT BUDGET

PERIOD     2 STEP    27
  SAVE HEAD
  SAVE DRAWDOWN
  SAVE BUDGET
  PRINT HEAD
  PRINT BUDGET

PERIOD     2 STEP    28
  SAVE HEAD
  SAVE DRAWDOWN
  SAVE BUDGET
  PRINT HEAD
  PRINT BUDGET

PERIOD     2 STEP    29
  SAVE HEAD
  SAVE DRAWDOWN
  SAVE BUDGET
  PRINT HEAD
  PRINT BUDGET

PERIOD     2 STEP    30
  SAVE HEAD
  SAVE DRAWDOWN
  SAVE BUDGET
  PRINT HEAD
  PRINT BUDGET

PERIOD     2 STEP    31
  SAVE HEAD
  SAVE DRAWDOWN
  SAVE BUDGET
  PRINT HEAD
  PRINT BUDGET

PERIOD     2 STEP    32
  SAVE HEAD
  SAVE DRAWDOWN
  SAVE BUDGET
  PRINT HEAD
  PRINT BUDGET

PERIOD     2 STEP    33
  SAVE HEAD
  SAVE DRAWDOWN
  SAVE BUDGET
  PRINT HEAD
  PRINT BUDGET

PERIOD     2 STEP    34
  SAVE HEAD
  SAVE DRAWDOWN
  SAVE BUDGET
  PRINT HEAD
  PRINT BUDGET

PERIOD     2 STEP    35
  SAVE HEAD
  SAVE DRAWDOWN
  SAVE BUDGET
  PRINT HEAD
  PRINT BUDGET

PERIOD     2 STEP    36
  SAVE HEAD
  SAVE DRAWDOWN
  SAVE BUDGET
  PRINT HEAD
  PRINT BUDGET

PERIOD     2 STEP    37
  SAVE HEAD
  SAVE DRAWDOWN
  SAVE BUDGET
  PRINT HEAD
  PRINT BUDGET

PERIOD     2 STEP    38
  SAVE HEAD
  SAVE DRAWDOWN
  SAVE BUDGET
  PRINT HEAD
  PRINT BUDGET

PERIOD     2 STEP    39
  SAVE HEAD
  SAVE DRAWDOWN
  SAVE BUDGET
  PRINT HEAD
  PRINT BUDGET

PERIOD     2 STEP    40
  SAVE HEAD
  SAVE DRAWDOWN
  SAVE BUDGET
  PRINT HEAD
  PRINT BUDGET

PERIOD     2 STEP    41
  SAVE HEAD
  SAVE DRAWDOWN
  SAVE BUDGET
  PRINT HEAD
  PRINT BUDGET

PERIOD     2 STEP    42
  SAVE HEAD
  SAVE DRAWDOWN
  SAVE BUDGET
  PRINT HEAD
  PRINT BUDGET

PERIOD     2 STEP    43
  SAVE HEAD
  SAVE DRAWDOWN
  SAVE BUDGET
  PRINT HEAD
  PRINT BUDGET

PERIOD     2 STEP    44
  SAVE HEAD
  SAVE DRAWDOWN
  SAVE BUDGET
  PRINT HEAD
  PRINT BUDGET

PERIOD     2 STEP    45
  SAVE HEAD
  SAVE DRAWDOWN
  SAVE BUDGET
  PRINT HEAD
  PRINT BUDGET

PERIOD     2 STEP    46
  SAVE HEAD
  SAVE DRAWDOWN
  SAVE BUDGET
  PRINT HEAD
  PRINT BUDGET

PERIOD     2 STEP    47
  SAVE HEAD
  SAVE DRAWDOWN
  SAVE BUDGET
  PRINT HEAD
  PRINT BUDGET

PERIOD     2 STEP    48
  SAVE HEAD
  SAVE DRAWDOWN
  SAVE BUDGET
  PRINT HEAD
  PRINT BUDGET

PERIOD     2 STEP    49
  SAVE HEAD
  SAVE DRAWDOWN
  SAVE BUDGET
  PRINT HEAD
  PRINT BUDGET

PERIOD     2 STEP    50
  SAVE HEAD
  SAVE DRAWDOWN
  SAVE BUDGET
  PRINT HEAD
  PRINT BUDGET

PERIOD     2 STEP    51
  SAVE HEAD
  SAVE DRAWDOWN
  SAVE BUDGET
  PRINT HEAD
  PRINT BUDGET

PERIOD     2 STEP    52
  SAVE HEAD
  SAVE DRAWDOWN
  SAVE BUDGET
  PRINT HEAD
  PRINT BUDGET

PERIOD     2 STEP    53
  SAVE HEAD
  SAVE DRAWDOWN
  SAVE BUDGET
  PRINT HEAD
  PRINT BUDGET

PERIOD     2 STEP    54
  SAVE HEAD
  SAVE DRAWDOWN
  SAVE BUDGET
  PRINT HEAD
  PRINT BUDGET

PERIOD     2 STEP    55
  SAVE HEAD
  SAVE DRAWDOWN
  SAVE BUDGET
  PRINT HEAD
  PRINT BUDGET

PERIOD     2 STEP    56
  SAVE HEAD
  SAVE DRAWDOWN
  SAVE BUDGET
  PRINT HEAD
  PRINT BUDGET

PERIOD     2 STEP    57
  SAVE HEAD
  SAVE DRAWDOWN
  SAVE BUDGET
  PRINT HEAD
  PRINT BUDGET

PERIOD     2 STEP    58
  SAVE HEAD
  SAVE DRAWDOWN
  SAVE BUDGET
  PRINT HEAD
  PRINT BUDGET

PERIOD     2 STEP    59
  SAVE HEAD
  SAVE DRAWDOWN
  SAVE BUDGET
  PRINT HEAD
  PRINT BUDGET

PERIOD     2 STEP    60
  SAVE HEAD
  SAVE DRAWDOWN
  SAVE BUDGET
  PRINT HEAD
  PRINT BUDGET

PERIOD     2 STEP    61
  SAVE HEAD
  SAVE DRAWDOWN
  SAVE BUDGET
  PRINT HEAD
  PRINT BUDGET

PERIOD     2 STEP    62
  SAVE HEAD
  SAVE DRAWDOWN
  SAVE BUDGET
  PRINT HEAD
  PRINT BUDGET

PERIOD     2 STEP    63
  SAVE HEAD
  SAVE DRAWDOWN
  SAVE BUDGET
  PRINT HEAD
  PRINT BUDGET

PERIOD     2 STEP    64
  SAVE HEAD
  SAVE DRAWDOWN
  SAVE BUDGET
  PRINT HEAD
  PRINT BUDGET

PERIOD     2 STEP    65
  SAVE HEAD
  SAVE DRAWDOWN
  SAVE BUDGET
  PRINT HEAD
  PRINT BUDGET

PERIOD     2 STEP    66
  SAVE HEAD
  SAVE DRAWDOWN
  SAVE BUDGET
  PRINT HEAD
  PRINT BUDGET

PERIOD     2 STEP    67
  SAVE HEAD
  SAVE DRAWDOWN
  SAVE BUDGET
  PRINT HEAD
  PRINT BUDGET

PERIOD     2 STEP    68
  SAVE HEAD
  SAVE DRAWDOWN
  SAVE BUDGET
  PRINT HEAD
  PRINT BUDGET

PERIOD     2 STEP    69
  SAVE HEAD
  SAVE DRAWDOWN
  SAVE BUDGET
  PRINT HEAD
  PRINT BUDGET

PERIOD     2 STEP    70
  SAVE HEAD
  SAVE DRAWDOWN
  SAVE BUDGET
  PRINT HEAD
  PRINT BUDGET

PERIOD     2 STEP    71
  SAVE HEAD
  SAVE DRAWDOWN
  SAVE BUDGET
  PRINT HEAD
  PRINT BUDGET

PERIOD     2 STEP    72
  SAVE HEAD
  SAVE DRAWDOWN
  SAVE BUDGET
  PRINT HEAD
  PRINT BUDGET

PERIOD     2 STEP    73
  SAVE HEAD
  SAVE DRAWDOWN
  SAVE BUDGET
  PRINT HEAD
  PRINT BUDGET

PERIOD     2 STEP    74
  SAVE HEAD
  SAVE DRAWDOWN
  SAVE BUDGET
  PRINT HEAD
  PRINT BUDGET

PERIOD     2 STEP    75
  SAVE HEAD
  SAVE DRAWDOWN
  SAVE BUDGET
  PRINT HEAD
  PRINT BUDGET

PERIOD     2 STEP    76
  SAVE HEAD
  SAVE DRAWDOWN
  SAVE BUDGET
  PRINT HEAD
  PRINT BUDGET

PERIOD     2 STEP    77
  SAVE HEAD
  SAVE DRAWDOWN
  SAVE BUDGET
  PRINT HEAD
  PRINT BUDGET

PERIOD     2 STEP    78
  SAVE HEAD
  SAVE DRAWDOWN
  SAVE BUDGET
  PRINT HEAD
  PRINT BUDGET

PERIOD     2 STEP    79
  SAVE HEAD
  SAVE DRAWDOWN
  SAVE BUDGET
  PRINT HEAD
  PRINT BUDGET

PERIOD     2 STEP    80
  SAVE HEAD
  SAVE DRAWDOWN
  SAVE BUDGET
  PRINT HEAD
  PRINT BUDGET

PERIOD     2 STEP    81
  SAVE HEAD
  SAVE DRAWDOWN
  SAVE BUDGET
  PRINT HEAD
  PRINT BUDGET

PERIOD     2 STEP    82
  SAVE HEAD
  SAVE DRAWDOWN
  SAVE BUDGET
  PRINT HEAD
  PRINT BUDGET

PERIOD     2 STEP    83
  SAVE HEAD
  SAVE DRAWDOWN
  SAVE BUDGET
  PRINT HEAD
  PRINT BUDGET

PERIOD     2 STEP    84
  SAVE HEAD
  SAVE DRAWDOWN
  SAVE BUDGET
  PRINT HEAD
  PRINT BUDGET

PERIOD     2 STEP    85
  SAVE HEAD
  SAVE DRAWDOWN
  SAVE BUDGET
  PRINT HEAD
  PRINT BUDGET

PERIOD     2 STEP    86
  SAVE HEAD
  SAVE DRAWDOWN
  SAVE BUDGET
  PRINT HEAD
  PRINT BUDGET

PERIOD     2 STEP    87
  SAVE HEAD
  SAVE DRAWDOWN
  SAVE BUDGET
  PRINT HEAD
  PRINT BUDGET

PERIOD     2 STEP    88
  SAVE HEAD
  SAVE DRAWDOWN
  SAVE BUDGET
  PRINT HEAD
  PRINT BUDGET

PERIOD     2 STEP    89
  SAVE HEAD
  SAVE DRAWDOWN
  SAVE BUDGET
  PRINT HEAD
  PRINT BUDGET

PERIOD     2 STEP    90
  SAVE HEAD
  SAVE DRAWDOWN
  SAVE BUDGET
  PRINT HEAD
  PRINT BUDGET

PERIOD     2 STEP    91
  SAVE HEAD
  SAVE DRAWDOWN
  SAVE BUDGET
  PRINT HEAD
  PRINT BUDGET

PERIOD     2 STEP    92
  SAVE HEAD
  SAVE DRAWDOWN
  SAVE BUDGET
  PRINT HEAD
  PRINT BUDGET

PERIOD     2 STEP    93
  SAVE HEAD
  SAVE DRAWDOWN
  SAVE BUDGET
  PRINT HEAD
  PRINT BUDGET

PERIOD     2 STEP    94
  SAVE HEAD
  SAVE DRAWDOWN
  SAVE BUDGET
  PRINT HEAD
  PRINT BUDGET

PERIOD     2 STEP    95
  SAVE HEAD
  SAVE DRAWDOWN
  SAVE BUDGET
  PRINT HEAD
  PRINT BUDGET

PERIOD     2 STEP    96
  SAVE HEAD
  SAVE DRAWDOWN
  SAVE BUDGET
  PRINT HEAD
  PRINT BUDGET

PERIOD     2 STEP    97
  SAVE HEAD
  SAVE DRAWDOWN
  SAVE BUDGET
  PRINT HEAD
  PRINT BUDGET

PERIOD     2 STEP    98
  SAVE HEAD
  SAVE DRAWDOWN
  SAVE BUDGET
  PRINT HEAD
  PRINT BUDGET

PERIOD     2 STEP    99
  SAVE HEAD
  SAVE DRAWDOWN
  SAVE BUDGET
  PRINT HEAD
  PRINT BUDGET

PERIOD     2 STEP   100
  SAVE HEAD
  SAVE DRAWDOWN
  SAVE BUDGET
  PRINT HEAD
  PRINT BUDGET

PERIOD     3 STEP     1
  SAVE HEAD
  SAVE DRAWDOWN
  SAVE BUDGET
  PRINT HEAD
  PRINT BUDGET

PERIOD     3 STEP     2
  SAVE HEAD
  SAVE DRAWDOWN
  SAVE BUDGET
  PRINT HEAD
  PRINT BUDGET

PERIOD     3 STEP     3
  SAVE HEAD
  SAVE DRAWDOWN
  SAVE BUDGET
  PRINT HEAD
  PRINT BUDGET

PERIOD     3 STEP     4
  SAVE HEAD
  SAVE DRAWDOWN
  SAVE BUDGET
  PRINT HEAD
  PRINT BUDGET

PERIOD     3 STEP     5
  SAVE HEAD
  SAVE DRAWDOWN
  SAVE BUDGET
  PRINT HEAD
  PRINT BUDGET

PERIOD     3 STEP     6
  SAVE HEAD
  SAVE DRAWDOWN
  SAVE BUDGET
  PRINT HEAD
  PRINT BUDGET

PERIOD     3 STEP     7
  SAVE HEAD
  SAVE DRAWDOWN
  SAVE BUDGET
  PRINT HEAD
  PRINT BUDGET

PERIOD     3 STEP     8
  SAVE HEAD
  SAVE DRAWDOWN
  SAVE BUDGET
  PRINT HEAD
  PRINT BUDGET

PERIOD     3 STEP     9
  SAVE HEAD
  SAVE DRAWDOWN
  SAVE BUDGET
  PRINT HEAD
  PRINT BUDGET

PERIOD     3 STEP    10
  SAVE HEAD
  SAVE DRAWDOWN
  SAVE BUDGET
  PRINT HEAD
  PRINT BUDGET

PERIOD     3 STEP    11
  SAVE HEAD
  SAVE DRAWDOWN
  SAVE BUDGET
  PRINT HEAD
  PRINT BUDGET

PERIOD     3 STEP    12
  SAVE HEAD
  SAVE DRAWDOWN
  SAVE BUDGET
  PRINT HEAD
  PRINT BUDGET

PERIOD     3 STEP    13
  SAVE HEAD
  SAVE DRAWDOWN
  SAVE BUDGET
  PRINT HEAD
  PRINT BUDGET

PERIOD     3 STEP    14
  SAVE HEAD
  SAVE DRAWDOWN
  SAVE BUDGET
  PRINT HEAD
  PRINT BUDGET

PERIOD     3 STEP    15
  SAVE HEAD
  SAVE DRAWDOWN
  SAVE BUDGET
  PRINT HEAD
  PRINT BUDGET

PERIOD     3 STEP    16
  SAVE HEAD
  SAVE DRAWDOWN
  SAVE BUDGET
  PRINT HEAD
  PRINT BUDGET

PERIOD     3 STEP    17
  SAVE HEAD
  SAVE DRAWDOWN
  SAVE BUDGET
  PRINT HEAD
  PRINT BUDGET

PERIOD     3 STEP    18
  SAVE HEAD
  SAVE DRAWDOWN
  SAVE BUDGET
  PRINT HEAD
  PRINT BUDGET

PERIOD     3 STEP    19
  SAVE HEAD
  SAVE DRAWDOWN
  SAVE BUDGET
  PRINT HEAD
  PRINT BUDGET

PERIOD     3 STEP    20
  SAVE HEAD
  SAVE DRAWDOWN
  SAVE BUDGET
  PRINT HEAD
  PRINT BUDGET

PERIOD     3 STEP    21
  SAVE HEAD
  SAVE DRAWDOWN
  SAVE BUDGET
  PRINT HEAD
  PRINT BUDGET

PERIOD     3 STEP    22
  SAVE HEAD
  SAVE DRAWDOWN
  SAVE BUDGET
  PRINT HEAD
  PRINT BUDGET

PERIOD     3 STEP    23
  SAVE HEAD
  SAVE DRAWDOWN
  SAVE BUDGET
  PRINT HEAD
  PRINT BUDGET

PERIOD     3 STEP    24
  SAVE HEAD
  SAVE DRAWDOWN
  SAVE BUDGET
  PRINT HEAD
  PRINT BUDGET

PERIOD     3 STEP    25
  SAVE HEAD
  SAVE DRAWDOWN
  SAVE BUDGET
  PRINT HEAD
  PRINT BUDGET

PERIOD     3 STEP    26
  SAVE HEAD
  SAVE DRAWDOWN
  SAVE BUDGET
  PRINT HEAD
  PRINT BUDGET

PERIOD     3 STEP    27
  SAVE HEAD
  SAVE DRAWDOWN
  SAVE BUDGET
  PRINT HEAD
  PRINT BUDGET

PERIOD     3 STEP    28
  SAVE HEAD
  SAVE DRAWDOWN
  SAVE BUDGET
  PRINT HEAD
  PRINT BUDGET

PERIOD     3 STEP    29
  SAVE HEAD
  SAVE DRAWDOWN
  SAVE BUDGET
  PRINT HEAD
  PRINT BUDGET

PERIOD     3 STEP    30
  SAVE HEAD
  SAVE DRAWDOWN
  SAVE BUDGET
  PRINT HEAD
  PRINT BUDGET

PERIOD     3 STEP    31
  SAVE HEAD
  SAVE DRAWDOWN
  SAVE BUDGET
  PRINT HEAD
  PRINT BUDGET

PERIOD     3 STEP    32
  SAVE HEAD
  SAVE DRAWDOWN
  SAVE BUDGET
  PRINT HEAD
  PRINT BUDGET

PERIOD     3 STEP    33
  SAVE HEAD
  SAVE DRAWDOWN
  SAVE BUDGET
  PRINT HEAD
  PRINT BUDGET

PERIOD     3 STEP    34
  SAVE HEAD
  SAVE DRAWDOWN
  SAVE BUDGET
  PRINT HEAD
  PRINT BUDGET

PERIOD     3 STEP    35
  SAVE HEAD
  SAVE DRAWDOWN
  SAVE BUDGET
  PRINT HEAD
  PRINT BUDGET

PERIOD     3 STEP    36
  SAVE HEAD
  SAVE DRAWDOWN
  SAVE BUDGET
  PRINT HEAD
  PRINT BUDGET

PERIOD     3 STEP    37
  SAVE HEAD
  SAVE DRAWDOWN
  SAVE BUDGET
  PRINT HEAD
  PRINT BUDGET

PERIOD     3 STEP    38
  SAVE HEAD
  SAVE DRAWDOWN
  SAVE BUDGET
  PRINT HEAD
  PRINT BUDGET

PERIOD     3 STEP    39
  SAVE HEAD
  SAVE DRAWDOWN
  SAVE BUDGET
  PRINT HEAD
  PRINT BUDGET

PERIOD     3 STEP    40
  SAVE HEAD
  SAVE DRAWDOWN
  SAVE BUDGET
  PRINT HEAD
  PRINT BUDGET

PERIOD     3 STEP    41
  SAVE HEAD
  SAVE DRAWDOWN
  SAVE BUDGET
  PRINT HEAD
  PRINT BUDGET

PERIOD     3 STEP    42
  SAVE HEAD
  SAVE DRAWDOWN
  SAVE BUDGET
  PRINT HEAD
  PRINT BUDGET

PERIOD     3 STEP    43
  SAVE HEAD
  SAVE DRAWDOWN
  SAVE BUDGET
  PRINT HEAD
  PRINT BUDGET

PERIOD     3 STEP    44
  SAVE HEAD
  SAVE DRAWDOWN
  SAVE BUDGET
  PRINT HEAD
  PRINT BUDGET

PERIOD     3 STEP    45
  SAVE HEAD
  SAVE DRAWDOWN
  SAVE BUDGET
  PRINT HEAD
  PRINT BUDGET

PERIOD     3 STEP    46
  SAVE HEAD
  SAVE DRAWDOWN
  SAVE BUDGET
  PRINT HEAD
  PRINT BUDGET

PERIOD     3 STEP    47
  SAVE HEAD
  SAVE DRAWDOWN
  SAVE BUDGET
  PRINT HEAD
  PRINT BUDGET

PERIOD     3 STEP    48
  SAVE HEAD
  SAVE DRAWDOWN
  SAVE BUDGET
  PRINT HEAD
  PRINT BUDGET

PERIOD     3 STEP    49
  SAVE HEAD
  SAVE DRAWDOWN
  SAVE BUDGET
  PRINT HEAD
  PRINT BUDGET

PERIOD     3 STEP    50
  SAVE HEAD
  SAVE DRAWDOWN
  SAVE BUDGET
  PRINT HEAD
  PRINT BUDGET

PERIOD     3 STEP    51
  SAVE HEAD
  SAVE DRAWDOWN
  SAVE BUDGET
  PRINT HEAD
  PRINT BUDGET

PERIOD     3 STEP    52
  SAVE HEAD
  SAVE DRAWDOWN
  SAVE BUDGET
  PRINT HEAD
  PRINT BUDGET

PERIOD     3 STEP    53
  SAVE HEAD
  SAVE DRAWDOWN
  SAVE BUDGET
  PRINT HEAD
  PRINT BUDGET

PERIOD     3 STEP    54
  SAVE HEAD
  SAVE DRAWDOWN
  SAVE BUDGET
  PRINT HEAD
  PRINT BUDGET

PERIOD     3 STEP    55
  SAVE HEAD
  SAVE DRAWDOWN
  SAVE BUDGET
  PRINT HEAD
  PRINT BUDGET

PERIOD     3 STEP    56
  SAVE HEAD
  SAVE DRAWDOWN
  SAVE BUDGET
  PRINT HEAD
  PRINT BUDGET

PERIOD     3 STEP    57
  SAVE HEAD
  SAVE DRAWDOWN
  SAVE BUDGET
  PRINT HEAD
  PRINT BUDGET

PERIOD     3 STEP    58
  SAVE HEAD
  SAVE DRAWDOWN
  SAVE BUDGET
  PRINT HEAD
  PRINT BUDGET

PERIOD     3 STEP    59
  SAVE HEAD
  SAVE DRAWDOWN
  SAVE BUDGET
  PRINT HEAD
  PRINT BUDGET

PERIOD     3 STEP    60
  SAVE HEAD
  SAVE DRAWDOWN
  SAVE BUDGET
  PRINT HEAD
  PRINT BUDGET

PERIOD     3 STEP    61
  SAVE HEAD
  SAVE DRAWDOWN
  SAVE BUDGET
  PRINT HEAD
  PRINT BUDGET

PERIOD     3 STEP    62
  SAVE HEAD
  SAVE DRAWDOWN
  SAVE BUDGET
  PRINT HEAD
  PRINT BUDGET

PERIOD     3 STEP    63
  SAVE HEAD
  SAVE DRAWDOWN
  SAVE BUDGET
  PRINT HEAD
  PRINT BUDGET

PERIOD     3 STEP    64
  SAVE HEAD
  SAVE DRAWDOWN
  SAVE BUDGET
  PRINT HEAD
  PRINT BUDGET

PERIOD     3 STEP    65
  SAVE HEAD
  SAVE DRAWDOWN
  SAVE BUDGET
  PRINT HEAD
  PRINT BUDGET

PERIOD     3 STEP    66
  SAVE HEAD
  SAVE DRAWDOWN
  SAVE BUDGET
  PRINT HEAD
  PRINT BUDGET

PERIOD     3 STEP    67
  SAVE HEAD
  SAVE DRAWDOWN
  SAVE BUDGET
  PRINT HEAD
  PRINT BUDGET

PERIOD     3 STEP    68
  SAVE HEAD
  SAVE DRAWDOWN
  SAVE BUDGET
  PRINT HEAD
  PRINT BUDGET

PERIOD     3 STEP    69
  SAVE HEAD
  SAVE DRAWDOWN
  SAVE BUDGET
  PRINT HEAD
  PRINT BUDGET

PERIOD     3 STEP    70
  SAVE HEAD
  SAVE DRAWDOWN
  SAVE BUDGET
  PRINT HEAD
  PRINT BUDGET

PERIOD     3 STEP    71
  SAVE HEAD
  SAVE DRAWDOWN
  SAVE BUDGET
  PRINT HEAD
  PRINT BUDGET

PERIOD     3 STEP    72
  SAVE HEAD
  SAVE DRAWDOWN
  SAVE BUDGET
  PRINT HEAD
  PRINT BUDGET

PERIOD     3 STEP    73
  SAVE HEAD
  SAVE DRAWDOWN
  SAVE BUDGET
  PRINT HEAD
  PRINT BUDGET

PERIOD     3 STEP    74
  SAVE HEAD
  SAVE DRAWDOWN
  SAVE BUDGET
  PRINT HEAD
  PRINT BUDGET

PERIOD     3 STEP    75
  SAVE HEAD
  SAVE DRAWDOWN
  SAVE BUDGET
  PRINT HEAD
  PRINT BUDGET

PERIOD     3 STEP    76
  SAVE HEAD
  SAVE DRAWDOWN
  SAVE BUDGET
  PRINT HEAD
  PRINT BUDGET

PERIOD     3 STEP    77
  SAVE HEAD
  SAVE DRAWDOWN
  SAVE BUDGET
  PRINT HEAD
  PRINT BUDGET

PERIOD     3 STEP    78
  SAVE HEAD
  SAVE DRAWDOWN
  SAVE BUDGET
  PRINT HEAD
  PRINT BUDGET

PERIOD     3 STEP    79
  SAVE HEAD
  SAVE DRAWDOWN
  SAVE BUDGET
  PRINT HEAD
  PRINT BUDGET

PERIOD     3 STEP    80
  SAVE HEAD
  SAVE DRAWDOWN
  SAVE BUDGET
  PRINT HEAD
  PRINT BUDGET

PERIOD     3 STEP    81
  SAVE HEAD
  SAVE DRAWDOWN
  SAVE BUDGET
  PRINT HEAD
  PRINT BUDGET

PERIOD     3 STEP    82
  SAVE HEAD
  SAVE DRAWDOWN
  SAVE BUDGET
  PRINT HEAD
  PRINT BUDGET

PERIOD     3 STEP    83
  SAVE HEAD
  SAVE DRAWDOWN
  SAVE BUDGET
  PRINT HEAD
  PRINT BUDGET

PERIOD     3 STEP    84
  SAVE HEAD
  SAVE DRAWDOWN
  SAVE BUDGET
  PRINT HEAD
  PRINT BUDGET

PERIOD     3 STEP    85
  SAVE HEAD
  SAVE DRAWDOWN
  SAVE BUDGET
  PRINT HEAD
  PRINT BUDGET

PERIOD     3 STEP    86
  SAVE HEAD
  SAVE DRAWDOWN
  SAVE BUDGET
  PRINT HEAD
  PRINT BUDGET

PERIOD     3 STEP    87
  SAVE HEAD
  SAVE DRAWDOWN
  SAVE BUDGET
  PRINT HEAD
  PRINT BUDGET

PERIOD     3 STEP    88
  SAVE HEAD
  SAVE DRAWDOWN
  SAVE BUDGET
  PRINT HEAD
  PRINT BUDGET

PERIOD     3 STEP    89
  SAVE HEAD
  SAVE DRAWDOWN
  SAVE BUDGET
  PRINT HEAD
  PRINT BUDGET

PERIOD     3 STEP    90
  SAVE HEAD
  SAVE DRAWDOWN
  SAVE BUDGET
  PRINT HEAD
  PRINT BUDGET

PERIOD     3 STEP    91
  SAVE HEAD
  SAVE DRAWDOWN
  SAVE BUDGET
  PRINT HEAD
  PRINT BUDGET

PERIOD     3 STEP    92
  SAVE HEAD
  SAVE DRAWDOWN
  SAVE BUDGET
  PRINT HEAD
  PRINT BUDGET

PERIOD     3 STEP    93
  SAVE HEAD
  SAVE DRAWDOWN
  SAVE BUDGET
  PRINT HEAD
  PRINT BUDGET

PERIOD     3 STEP    94
  SAVE HEAD
  SAVE DRAWDOWN
  SAVE BUDGET
  PRINT HEAD
  PRINT BUDGET

PERIOD     3 STEP    95
  SAVE HEAD
  SAVE DRAWDOWN
  SAVE BUDGET
  PRINT HEAD
  PRINT BUDGET

PERIOD     3 STEP    96
  SAVE HEAD
  SAVE DRAWDOWN
  SAVE BUDGET
  PRINT HEAD
  PRINT BUDGET

PERIOD     3 STEP    97
  SAVE HEAD
  SAVE DRAWDOWN
  SAVE BUDGET
  PRINT HEAD
  PRINT BUDGET

PERIOD     3 STEP    98
  SAVE HEAD
  SAVE DRAWDOWN
  SAVE BUDGET
  PRINT HEAD
  PRINT BUDGET

PERIOD     3 STEP    99
  SAVE HEAD
  SAVE DRAWDOWN
  SAVE BUDGET
  PRINT HEAD
  PRINT BUDGET

PERIOD     3 STEP   100
  SAVE HEAD
  SAVE DRAWDOWN
  SAVE BUDGET
  PRINT HEAD
  PRINT BUDGET

