# RCH for MODFLOW, generated by Flopy.
         3         0
         1         1 #Recharge array for stress period 1
INTERNAL               1 (20G15.6)  -1 #rech_1                        
   5.251136E-07   3.575774E-07   3.575774E-07   3.575774E-07   3.575774E-07   3.575774E-07   3.575774E-07   3.575774E-07   3.575774E-07   3.575774E-07   3.575774E-07   3.575774E-07   3.575774E-07   3.575774E-07   3.575774E-07   3.575774E-07   3.575774E-07   3.575774E-07   3.575774E-07   3.575774E-07
   5.251136E-07   3.575774E-07   3.575774E-07   3.575774E-07   3.575774E-07   3.575774E-07   3.575774E-07   3.575774E-07   3.575774E-07   3.575774E-07   3.575774E-07   3.575774E-07   3.575774E-07   3.575774E-07   3.575774E-07   3.575774E-07   3.575774E-07   3.575774E-07   3.575774E-07   3.575774E-07
   5.251136E-07   3.575774E-07   3.575774E-07   3.575774E-07   3.575774E-07   3.575774E-07   3.575774E-07   3.575774E-07   3.575774E-07   3.575774E-07   3.575774E-07   3.575774E-07   3.575774E-07   3.575774E-07   3.575774E-07   3.575774E-07   3.575774E-07   3.575774E-07   3.575774E-07   3.575774E-07
   5.251136E-07   3.575774E-07   3.575774E-07   3.575774E-07   3.575774E-07   3.575774E-07   3.575774E-07   3.575774E-07   3.575774E-07   3.575774E-07   3.575774E-07   3.575774E-07   3.575774E-07   3.575774E-07   3.575774E-07   3.575774E-07   3.575774E-07   3.575774E-07   3.575774E-07   3.575774E-07
   5.251136E-07   3.575774E-07   3.575774E-07   3.575774E-07   3.575774E-07   3.575774E-07   3.575774E-07   3.575774E-07   3.575774E-07   3.575774E-07   3.575774E-07   3.575774E-07   3.575774E-07   3.575774E-07   3.575774E-07   3.575774E-07   3.575774E-07   3.575774E-07   3.575774E-07   3.575774E-07
   5.251136E-07   3.575774E-07   3.575774E-07   3.575774E-07   3.575774E-07   3.575774E-07   3.575774E-07   3.575774E-07   3.575774E-07   3.575774E-07   3.575774E-07   3.575774E-07   3.575774E-07   3.575774E-07   3.575774E-07   3.575774E-07   3.575774E-07   3.575774E-07   3.575774E-07   3.575774E-07
   3.169436E-07   3.575774E-07   3.575774E-07   3.575774E-07   3.575774E-07   3.575774E-07   3.575774E-07   3.575774E-07   3.575774E-07   3.575774E-07   3.575774E-07   3.575774E-07   3.575774E-07   3.575774E-07   3.575774E-07   3.575774E-07   3.575774E-07   3.575774E-07   3.575774E-07   3.575774E-07
   3.169436E-07   3.575774E-07   3.575774E-07   3.575774E-07   3.575774E-07   3.575774E-07   3.575774E-07   3.575774E-07   3.575774E-07   3.575774E-07   3.575774E-07   3.575774E-07   3.575774E-07   3.575774E-07   3.575774E-07   3.575774E-07   3.575774E-07   3.575774E-07   3.575774E-07   3.575774E-07
   3.169436E-07   3.169436E-07   3.575774E-07   3.575774E-07   3.575774E-07   3.575774E-07   3.575774E-07   3.575774E-07   3.575774E-07   3.575774E-07   3.575774E-07   3.575774E-07   3.575774E-07   3.575774E-07   3.575774E-07   3.575774E-07   3.575774E-07   3.575774E-07   3.575774E-07   3.575774E-07
   3.169436E-07   3.169436E-07   3.575774E-07   3.575774E-07   3.575774E-07   3.575774E-07   3.575774E-07   3.575774E-07   3.575774E-07   3.575774E-07   3.575774E-07   3.575774E-07   3.575774E-07   3.575774E-07   3.575774E-07   3.575774E-07   3.575774E-07   3.575774E-07   3.575774E-07   3.575774E-07
         1        -1 #Recharge array for stress period 2
INTERNAL               1 (20G15.6)  -1 #rech_2                        
   4.607247E-07   4.982328E-07   4.982328E-07   4.982328E-07   4.982328E-07   4.982328E-07   4.982328E-07   4.982328E-07   4.982328E-07   4.982328E-07   4.982328E-07   4.982328E-07   4.982328E-07   4.982328E-07   4.982328E-07   4.982328E-07   4.982328E-07   4.982328E-07   4.982328E-07   4.982328E-07
   4.607247E-07   4.982328E-07   4.982328E-07   4.982328E-07   4.982328E-07   4.982328E-07   4.982328E-07   4.982328E-07   4.982328E-07   4.982328E-07   4.982328E-07   4.982328E-07   4.982328E-07   4.982328E-07   4.982328E-07   4.982328E-07   4.982328E-07   4.982328E-07   4.982328E-07   4.982328E-07
   4.607247E-07   4.982328E-07   4.982328E-07   4.982328E-07   4.982328E-07   4.982328E-07   4.982328E-07   4.982328E-07   4.982328E-07   4.982328E-07   4.982328E-07   4.982328E-07   4.982328E-07   4.982328E-07   4.982328E-07   4.982328E-07   4.982328E-07   4.982328E-07   4.982328E-07   4.982328E-07
   4.607247E-07   4.982328E-07   4.982328E-07   4.982328E-07   4.982328E-07   4.982328E-07   4.982328E-07   4.982328E-07   4.982328E-07   4.982328E-07   4.982328E-07   4.982328E-07   4.982328E-07   4.982328E-07   4.982328E-07   4.982328E-07   4.982328E-07   4.982328E-07   4.982328E-07   4.982328E-07
   4.607247E-07   4.982328E-07   4.982328E-07   4.982328E-07   4.982328E-07   4.982328E-07   4.982328E-07   4.982328E-07   4.982328E-07   4.982328E-07   4.982328E-07   4.982328E-07   4.982328E-07   4.982328E-07   4.982328E-07   4.982328E-07   4.982328E-07   4.982328E-07   4.982328E-07   4.982328E-07
   4.607247E-07   4.982328E-07   4.982328E-07   4.982328E-07   4.982328E-07   4.982328E-07   4.982328E-07   4.982328E-07   4.982328E-07   4.982328E-07   4.982328E-07   4.982328E-07   4.982328E-07   4.982328E-07   4.982328E-07   4.982328E-07   4.982328E-07   4.982328E-07   4.982328E-07   4.982328E-07
   4.819793E-07   4.982328E-07   4.982328E-07   4.982328E-07   4.982328E-07   4.982328E-07   4.982328E-07   4.982328E-07   4.982328E-07   4.982328E-07   4.982328E-07   4.982328E-07   4.982328E-07   4.982328E-07   4.982328E-07   4.982328E-07   4.982328E-07   4.982328E-07   4.982328E-07   4.982328E-07
   4.819793E-07   4.982328E-07   4.982328E-07   4.982328E-07   4.982328E-07   4.982328E-07   4.982328E-07   4.982328E-07   4.982328E-07   4.982328E-07   4.982328E-07   4.982328E-07   4.982328E-07   4.982328E-07   4.982328E-07   4.982328E-07   4.982328E-07   4.982328E-07   4.982328E-07   4.982328E-07
   4.819793E-07   4.819793E-07   4.982328E-07   4.982328E-07   4.982328E-07   4.982328E-07   4.982328E-07   4.982328E-07   4.982328E-07   4.982328E-07   4.982328E-07   4.982328E-07   4.982328E-07   4.982328E-07   4.982328E-07   4.982328E-07   4.982328E-07   4.982328E-07   4.982328E-07   4.982328E-07
   4.819793E-07   4.819793E-07   4.982328E-07   4.982328E-07   4.982328E-07   4.982328E-07   4.982328E-07   4.982328E-07   4.982328E-07   4.982328E-07   4.982328E-07   4.982328E-07   4.982328E-07   4.982328E-07   4.982328E-07   4.982328E-07   4.982328E-07   4.982328E-07   4.982328E-07   4.982328E-07
         1        -1 #Recharge array for stress period 3
INTERNAL               1 (20G15.6)  -1 #rech_3                        
   2.681830E-07   3.031906E-07   3.031906E-07   3.031906E-07   3.031906E-07   3.031906E-07   3.031906E-07   3.031906E-07   3.031906E-07   3.031906E-07   3.031906E-07   3.031906E-07   3.031906E-07   3.031906E-07   3.031906E-07   3.031906E-07   3.031906E-07   3.031906E-07   3.031906E-07   3.031906E-07
   2.681830E-07   3.031906E-07   3.031906E-07   3.031906E-07   3.031906E-07   3.031906E-07   3.031906E-07   3.031906E-07   3.031906E-07   3.031906E-07   3.031906E-07   3.031906E-07   3.031906E-07   3.031906E-07   3.031906E-07   3.031906E-07   3.031906E-07   3.031906E-07   3.031906E-07   3.031906E-07
   2.681830E-07   3.031906E-07   3.031906E-07   3.031906E-07   3.031906E-07   3.031906E-07   3.031906E-07   3.031906E-07   3.031906E-07   3.031906E-07   3.031906E-07   3.031906E-07   3.031906E-07   3.031906E-07   3.031906E-07   3.031906E-07   3.031906E-07   3.031906E-07   3.031906E-07   3.031906E-07
   2.681830E-07   3.031906E-07   3.031906E-07   3.031906E-07   3.031906E-07   3.031906E-07   3.031906E-07   3.031906E-07   3.031906E-07   3.031906E-07   3.031906E-07   3.031906E-07   3.031906E-07   3.031906E-07   3.031906E-07   3.031906E-07   3.031906E-07   3.031906E-07   3.031906E-07   3.031906E-07
   2.681830E-07   3.031906E-07   3.031906E-07   3.031906E-07   3.031906E-07   3.031906E-07   3.031906E-07   3.031906E-07   3.031906E-07   3.031906E-07   3.031906E-07   3.031906E-07   3.031906E-07   3.031906E-07   3.031906E-07   3.031906E-07   3.031906E-07   3.031906E-07   3.031906E-07   3.031906E-07
   2.681830E-07   3.031906E-07   3.031906E-07   3.031906E-07   3.031906E-07   3.031906E-07   3.031906E-07   3.031906E-07   3.031906E-07   3.031906E-07   3.031906E-07   3.031906E-07   3.031906E-07   3.031906E-07   3.031906E-07   3.031906E-07   3.031906E-07   3.031906E-07   3.031906E-07   3.031906E-07
   2.844365E-07   3.031906E-07   3.031906E-07   3.031906E-07   3.031906E-07   3.031906E-07   3.031906E-07   3.031906E-07   3.031906E-07   3.031906E-07   3.031906E-07   3.031906E-07   3.031906E-07   3.031906E-07   3.031906E-07   3.031906E-07   3.031906E-07   3.031906E-07   3.031906E-07   3.031906E-07
   2.844365E-07   3.031906E-07   3.031906E-07   3.031906E-07   3.031906E-07   3.031906E-07   3.031906E-07   3.031906E-07   3.031906E-07   3.031906E-07   3.031906E-07   3.031906E-07   3.031906E-07   3.031906E-07   3.031906E-07   3.031906E-07   3.031906E-07   3.031906E-07   3.031906E-07   3.031906E-07
   2.844365E-07   2.844365E-07   3.031906E-07   3.031906E-07   3.031906E-07   3.031906E-07   3.031906E-07   3.031906E-07   3.031906E-07   3.031906E-07   3.031906E-07   3.031906E-07   3.031906E-07   3.031906E-07   3.031906E-07   3.031906E-07   3.031906E-07   3.031906E-07   3.031906E-07   3.031906E-07
   2.844365E-07   2.844365E-07   3.031906E-07   3.031906E-07   3.031906E-07   3.031906E-07   3.031906E-07   3.031906E-07   3.031906E-07   3.031906E-07   3.031906E-07   3.031906E-07   3.031906E-07   3.031906E-07   3.031906E-07   3.031906E-07   3.031906E-07   3.031906E-07   3.031906E-07   3.031906E-07
