# UPW for MODFLOW-NWT, generated by Flopy.
         0    -1E+04         0         1 
         1
         1
         1
         1
         0
INTERNAL               1 (20G15.6)  -1 #hk Layer 1                    
   4.007021E+00   4.013019E+00   4.017179E+00   4.018976E+00   4.018281E+00   4.015365E+00   4.010839E+00   4.005539E+00   4.000362E+00   3.996110E+00   3.993348E+00   3.992323E+00   4.068219E+00   1.236851E+01   4.008409E+00   3.999799E+00   4.001721E+00   3.836133E+00   3.012570E+00   3.011547E+00
   4.013429E+00   4.024901E+00   4.032857E+00   4.036296E+00   4.034966E+00   4.029388E+00   4.020732E+00   4.010595E+00   4.000693E+00   3.992559E+00   3.987277E+00   3.985316E+00   3.986488E+00   8.350488E+00   3.994831E+00   3.999616E+00   4.003292E+00   3.694626E+00   3.014915E+00   3.012958E+00
   4.018752E+00   4.065317E+00   4.048299E+00   4.050683E+00   4.048826E+00   4.734598E+00   6.219336E+00   5.523714E+00   4.000968E+00   3.989610E+00   3.982234E+00   3.979495E+00   3.981133E+00   3.986089E+00   3.992782E+00   3.999464E+00   4.004597E+00   3.731127E+00   3.016863E+00   3.014131E+00
   4.022559E+00   4.041831E+00   4.055195E+00   4.060972E+00   4.058740E+00   5.220645E+00   8.025301E+00   5.636225E+00   4.001164E+00   3.987500E+00   3.978627E+00   3.975332E+00   3.977302E+00   3.983264E+00   3.991317E+00   3.999355E+00   4.005530E+00   3.760523E+00   3.018257E+00   3.014969E+00
   4.024543E+00   4.045509E+00   4.060049E+00   4.066334E+00   4.063905E+00   4.053710E+00   4.037891E+00   4.019363E+00   4.001266E+00   3.986401E+00   3.976748E+00   3.973163E+00   3.975306E+00   3.981793E+00   3.990553E+00   3.750573E+00   3.089132E+00   3.544646E+00   3.241838E+00   3.018997E+00
   4.024543E+00   4.045509E+00   4.060049E+00   4.066334E+00   4.063905E+00   4.053710E+00   4.037891E+00   4.019363E+00   4.001266E+00   3.986401E+00   3.976748E+00   3.973163E+00   3.975306E+00   3.981793E+00   3.990553E+00   3.684552E+00   3.351911E+00   3.663267E+00   3.336358E+00   3.159237E+00
   4.022559E+00   4.041831E+00   4.055195E+00   4.060972E+00   4.058740E+00   4.049368E+00   4.034828E+00   4.017798E+00   4.001164E+00   3.987500E+00   3.978627E+00   3.975332E+00   3.977302E+00   3.983264E+00   3.991317E+00   3.999355E+00   3.960761E+00   3.145887E+00   3.018257E+00   3.014969E+00
   4.018752E+00   4.034771E+00   4.045880E+00   4.050683E+00   4.048826E+00   4.041037E+00   4.028950E+00   4.014794E+00   4.000968E+00   3.989610E+00   3.982234E+00   3.979495E+00   3.981133E+00   3.986089E+00   3.992782E+00   3.999464E+00   4.002753E+00   3.346218E+00   3.016863E+00   3.014131E+00
   4.013429E+00   4.024901E+00   4.032857E+00   4.036296E+00   4.034966E+00   4.029388E+00   4.020732E+00   4.010595E+00   4.000693E+00   3.992559E+00   3.987277E+00   3.985316E+00   3.986488E+00   3.990038E+00   3.994831E+00   3.999616E+00   4.003292E+00   3.967612E+00   3.670762E+00   3.436260E+00
   4.007021E+00   4.013019E+00   4.017179E+00   4.018976E+00   4.018281E+00   4.015365E+00   4.010839E+00   4.005539E+00   4.000362E+00   3.996110E+00   3.993348E+00   3.992323E+00   3.992936E+00   3.994792E+00   3.997298E+00   3.999799E+00   4.001721E+00   4.002683E+00   4.002570E+00   4.001546E+00
CONSTANT    1.000000E+00                           #vka Layer 1                   
CONSTANT    1.000000E-04                           #ss Layer 1                    
INTERNAL               1 (20G15.6)  -1 #sy Layer 1                    
   3.000000E-02   3.000000E-02   3.000000E-02   3.000000E-02   3.000000E-02   3.000000E-02   3.000000E-02   3.000000E-02   3.000000E-02   3.000000E-02   3.000000E-02   3.000000E-02   3.058554E-02   9.512895E-02   3.008642E-02   3.000000E-02   3.000000E-02   3.000000E-02  -9.999000E+03  -9.999000E+03
   3.000000E-02   3.000000E-02   3.000000E-02   3.000000E-02   3.000000E-02   3.000000E-02   3.000000E-02   3.000000E-02   3.000000E-02   3.000000E-02   3.000000E-02   3.000000E-02   3.000000E-02   6.391461E-02   3.000000E-02   3.000000E-02   3.000000E-02   3.000000E-02  -9.999000E+03  -9.999000E+03
   3.000000E-02   3.427641E-02   3.033865E-02   3.000000E-02   3.000000E-02   3.539436E-02   4.703633E-02   4.173604E-02   3.000000E-02   3.000000E-02   3.000000E-02   3.000000E-02   3.000000E-02   3.000000E-02   3.000000E-02   3.000000E-02   3.000000E-02   3.000000E-02  -9.999000E+03  -9.999000E+03
   3.000000E-02   3.000000E-02   3.000000E-02   3.000000E-02   3.000000E-02   3.910993E-02   6.103701E-02   4.258776E-02   3.000000E-02   3.000000E-02   3.000000E-02   3.000000E-02   3.000000E-02   3.000000E-02   3.000000E-02   3.000000E-02   3.000000E-02   3.000000E-02  -9.999000E+03  -9.999000E+03
   3.000000E-02   3.000000E-02   3.000000E-02   3.000000E-02   3.000000E-02   3.000000E-02   3.000000E-02   3.000000E-02   3.000000E-02   3.000000E-02   3.000000E-02   3.000000E-02   3.000000E-02   3.000000E-02   3.000000E-02   3.000000E-02   3.000000E-02   3.000000E-02   3.000000E-02   3.000000E-02
   3.000000E-02   3.000000E-02   3.000000E-02   3.000000E-02   3.000000E-02   3.000000E-02   3.000000E-02   3.000000E-02   3.000000E-02   3.000000E-02   3.000000E-02   3.000000E-02   3.000000E-02   3.000000E-02   3.000000E-02   3.000000E-02   3.000000E-02   3.000000E-02   3.000000E-02   3.000000E-02
   3.000000E-02   3.000000E-02   3.000000E-02   3.000000E-02   3.000000E-02   3.000000E-02   3.000000E-02   3.000000E-02   3.000000E-02   3.000000E-02   3.000000E-02   3.000000E-02   3.000000E-02   3.000000E-02   3.000000E-02   3.000000E-02   3.000000E-02   3.000000E-02  -9.999000E+03  -9.999000E+03
   3.000000E-02   3.000000E-02   3.000000E-02   3.000000E-02   3.000000E-02   3.000000E-02   3.000000E-02   3.000000E-02   3.000000E-02   3.000000E-02   3.000000E-02   3.000000E-02   3.000000E-02   3.000000E-02   3.000000E-02   3.000000E-02   3.000000E-02   3.000000E-02  -9.999000E+03  -9.999000E+03
   3.000000E-02   3.000000E-02   3.000000E-02   3.000000E-02   3.000000E-02   3.000000E-02   3.000000E-02   3.000000E-02   3.000000E-02   3.000000E-02   3.000000E-02   3.000000E-02   3.000000E-02   3.000000E-02   3.000000E-02   3.000000E-02   3.000000E-02   3.000000E-02   3.000000E-02   3.000000E-02
   3.000000E-02   3.000000E-02   3.000000E-02   3.000000E-02   3.000000E-02   3.000000E-02   3.000000E-02   3.000000E-02   3.000000E-02   3.000000E-02   3.000000E-02   3.000000E-02   3.000000E-02   3.000000E-02   3.000000E-02   3.000000E-02   3.000000E-02   3.000000E-02   3.000000E-02   3.000000E-02
