# Discretization file for MODFLOW, generated by Flopy.
         1        10        20         3         4         2
  0
CONSTANT    2.857988E+03                           #delr                          
CONSTANT    2.616008E+03                           #delc                          
CONSTANT    0.000000E+00                           #model_top                     
CONSTANT   -5.000000E+01                           #botm Layer 1                  
      1.000000             1  1.000000  SS 
    100.000000           100  1.000000  TR 
    100.000000           100  1.000000  TR 
