# RCH for MODFLOW, generated by Flopy.
         3         0
         1         1 #Recharge array for stress period 1
INTERNAL               1 (20G15.6)  -1 #rech_1                        
   2.879573E-05   1.960852E-05   1.960852E-05   1.960852E-05   1.960852E-05   1.960852E-05   1.960852E-05   1.960852E-05   1.960852E-05   1.960852E-05   1.960852E-05   1.960852E-05   1.960852E-05   1.960852E-05   1.960852E-05   1.960852E-05   1.960852E-05   1.960852E-05   1.960852E-05   1.960852E-05
   2.879573E-05   1.960852E-05   1.960852E-05   1.960852E-05   1.960852E-05   1.960852E-05   1.960852E-05   1.960852E-05   1.960852E-05   1.960852E-05   1.960852E-05   1.960852E-05   1.960852E-05   1.960852E-05   1.960852E-05   1.960852E-05   1.960852E-05   1.960852E-05   1.960852E-05   1.960852E-05
   2.879573E-05   1.960852E-05   1.960852E-05   1.960852E-05   1.960852E-05   1.960852E-05   1.960852E-05   1.960852E-05   1.960852E-05   1.960852E-05   1.960852E-05   1.960852E-05   1.960852E-05   1.960852E-05   1.960852E-05   1.960852E-05   1.960852E-05   1.960852E-05   1.960852E-05   1.960852E-05
   2.879573E-05   1.960852E-05   1.960852E-05   1.960852E-05   1.960852E-05   1.960852E-05   1.960852E-05   1.960852E-05   1.960852E-05   1.960852E-05   1.960852E-05   1.960852E-05   1.960852E-05   1.960852E-05   1.960852E-05   1.960852E-05   1.960852E-05   1.960852E-05   1.960852E-05   1.960852E-05
   2.879573E-05   1.960852E-05   1.960852E-05   1.960852E-05   1.960852E-05   1.960852E-05   1.960852E-05   1.960852E-05   1.960852E-05   1.960852E-05   1.960852E-05   1.960852E-05   1.960852E-05   1.960852E-05   1.960852E-05   1.960852E-05   1.960852E-05   1.960852E-05   1.960852E-05   1.960852E-05
   2.879573E-05   1.960852E-05   1.960852E-05   1.960852E-05   1.960852E-05   1.960852E-05   1.960852E-05   1.960852E-05   1.960852E-05   1.960852E-05   1.960852E-05   1.960852E-05   1.960852E-05   1.960852E-05   1.960852E-05   1.960852E-05   1.960852E-05   1.960852E-05   1.960852E-05   1.960852E-05
   1.738028E-05   1.960852E-05   1.960852E-05   1.960852E-05   1.960852E-05   1.960852E-05   1.960852E-05   1.960852E-05   1.960852E-05   1.960852E-05   1.960852E-05   1.960852E-05   1.960852E-05   1.960852E-05   1.960852E-05   1.960852E-05   1.960852E-05   1.960852E-05   1.960852E-05   1.960852E-05
   1.738028E-05   1.960852E-05   1.960852E-05   1.960852E-05   1.960852E-05   1.960852E-05   1.960852E-05   1.960852E-05   1.960852E-05   1.960852E-05   1.960852E-05   1.960852E-05   1.960852E-05   1.960852E-05   1.960852E-05   1.960852E-05   1.960852E-05   1.960852E-05   1.960852E-05   1.960852E-05
   1.738028E-05   1.738028E-05   1.960852E-05   1.960852E-05   1.960852E-05   1.960852E-05   1.960852E-05   1.960852E-05   1.960852E-05   1.960852E-05   1.960852E-05   1.960852E-05   1.960852E-05   1.960852E-05   1.960852E-05   1.960852E-05   1.960852E-05   1.960852E-05   1.960852E-05   1.960852E-05
   1.738028E-05   1.738028E-05   1.960852E-05   1.960852E-05   1.960852E-05   1.960852E-05   1.960852E-05   1.960852E-05   1.960852E-05   1.960852E-05   1.960852E-05   1.960852E-05   1.960852E-05   1.960852E-05   1.960852E-05   1.960852E-05   1.960852E-05   1.960852E-05   1.960852E-05   1.960852E-05
         1        -1 #Recharge array for stress period 2
INTERNAL               1 (20G15.6)  -1 #rech_2                        
   2.526482E-05   2.732166E-05   2.732166E-05   2.732166E-05   2.732166E-05   2.732166E-05   2.732166E-05   2.732166E-05   2.732166E-05   2.732166E-05   2.732166E-05   2.732166E-05   2.732166E-05   2.732166E-05   2.732166E-05   2.732166E-05   2.732166E-05   2.732166E-05   2.732166E-05   2.732166E-05
   2.526482E-05   2.732166E-05   2.732166E-05   2.732166E-05   2.732166E-05   2.732166E-05   2.732166E-05   2.732166E-05   2.732166E-05   2.732166E-05   2.732166E-05   2.732166E-05   2.732166E-05   2.732166E-05   2.732166E-05   2.732166E-05   2.732166E-05   2.732166E-05   2.732166E-05   2.732166E-05
   2.526482E-05   2.732166E-05   2.732166E-05   2.732166E-05   2.732166E-05   2.732166E-05   2.732166E-05   2.732166E-05   2.732166E-05   2.732166E-05   2.732166E-05   2.732166E-05   2.732166E-05   2.732166E-05   2.732166E-05   2.732166E-05   2.732166E-05   2.732166E-05   2.732166E-05   2.732166E-05
   2.526482E-05   2.732166E-05   2.732166E-05   2.732166E-05   2.732166E-05   2.732166E-05   2.732166E-05   2.732166E-05   2.732166E-05   2.732166E-05   2.732166E-05   2.732166E-05   2.732166E-05   2.732166E-05   2.732166E-05   2.732166E-05   2.732166E-05   2.732166E-05   2.732166E-05   2.732166E-05
   2.526482E-05   2.732166E-05   2.732166E-05   2.732166E-05   2.732166E-05   2.732166E-05   2.732166E-05   2.732166E-05   2.732166E-05   2.732166E-05   2.732166E-05   2.732166E-05   2.732166E-05   2.732166E-05   2.732166E-05   2.732166E-05   2.732166E-05   2.732166E-05   2.732166E-05   2.732166E-05
   2.526482E-05   2.732166E-05   2.732166E-05   2.732166E-05   2.732166E-05   2.732166E-05   2.732166E-05   2.732166E-05   2.732166E-05   2.732166E-05   2.732166E-05   2.732166E-05   2.732166E-05   2.732166E-05   2.732166E-05   2.732166E-05   2.732166E-05   2.732166E-05   2.732166E-05   2.732166E-05
   2.643037E-05   2.732166E-05   2.732166E-05   2.732166E-05   2.732166E-05   2.732166E-05   2.732166E-05   2.732166E-05   2.732166E-05   2.732166E-05   2.732166E-05   2.732166E-05   2.732166E-05   2.732166E-05   2.732166E-05   2.732166E-05   2.732166E-05   2.732166E-05   2.732166E-05   2.732166E-05
   2.643037E-05   2.732166E-05   2.732166E-05   2.732166E-05   2.732166E-05   2.732166E-05   2.732166E-05   2.732166E-05   2.732166E-05   2.732166E-05   2.732166E-05   2.732166E-05   2.732166E-05   2.732166E-05   2.732166E-05   2.732166E-05   2.732166E-05   2.732166E-05   2.732166E-05   2.732166E-05
   2.643037E-05   2.643037E-05   2.732166E-05   2.732166E-05   2.732166E-05   2.732166E-05   2.732166E-05   2.732166E-05   2.732166E-05   2.732166E-05   2.732166E-05   2.732166E-05   2.732166E-05   2.732166E-05   2.732166E-05   2.732166E-05   2.732166E-05   2.732166E-05   2.732166E-05   2.732166E-05
   2.643037E-05   2.643037E-05   2.732166E-05   2.732166E-05   2.732166E-05   2.732166E-05   2.732166E-05   2.732166E-05   2.732166E-05   2.732166E-05   2.732166E-05   2.732166E-05   2.732166E-05   2.732166E-05   2.732166E-05   2.732166E-05   2.732166E-05   2.732166E-05   2.732166E-05   2.732166E-05
         1        -1 #Recharge array for stress period 3
INTERNAL               1 (20G15.6)  -1 #rech_3                        
   1.470639E-05   1.662611E-05   1.662611E-05   1.662611E-05   1.662611E-05   1.662611E-05   1.662611E-05   1.662611E-05   1.662611E-05   1.662611E-05   1.662611E-05   1.662611E-05   1.662611E-05   1.662611E-05   1.662611E-05   1.662611E-05   1.662611E-05   1.662611E-05   1.662611E-05   1.662611E-05
   1.470639E-05   1.662611E-05   1.662611E-05   1.662611E-05   1.662611E-05   1.662611E-05   1.662611E-05   1.662611E-05   1.662611E-05   1.662611E-05   1.662611E-05   1.662611E-05   1.662611E-05   1.662611E-05   1.662611E-05   1.662611E-05   1.662611E-05   1.662611E-05   1.662611E-05   1.662611E-05
   1.470639E-05   1.662611E-05   1.662611E-05   1.662611E-05   1.662611E-05   1.662611E-05   1.662611E-05   1.662611E-05   1.662611E-05   1.662611E-05   1.662611E-05   1.662611E-05   1.662611E-05   1.662611E-05   1.662611E-05   1.662611E-05   1.662611E-05   1.662611E-05   1.662611E-05   1.662611E-05
   1.470639E-05   1.662611E-05   1.662611E-05   1.662611E-05   1.662611E-05   1.662611E-05   1.662611E-05   1.662611E-05   1.662611E-05   1.662611E-05   1.662611E-05   1.662611E-05   1.662611E-05   1.662611E-05   1.662611E-05   1.662611E-05   1.662611E-05   1.662611E-05   1.662611E-05   1.662611E-05
   1.470639E-05   1.662611E-05   1.662611E-05   1.662611E-05   1.662611E-05   1.662611E-05   1.662611E-05   1.662611E-05   1.662611E-05   1.662611E-05   1.662611E-05   1.662611E-05   1.662611E-05   1.662611E-05   1.662611E-05   1.662611E-05   1.662611E-05   1.662611E-05   1.662611E-05   1.662611E-05
   1.470639E-05   1.662611E-05   1.662611E-05   1.662611E-05   1.662611E-05   1.662611E-05   1.662611E-05   1.662611E-05   1.662611E-05   1.662611E-05   1.662611E-05   1.662611E-05   1.662611E-05   1.662611E-05   1.662611E-05   1.662611E-05   1.662611E-05   1.662611E-05   1.662611E-05   1.662611E-05
   1.559769E-05   1.662611E-05   1.662611E-05   1.662611E-05   1.662611E-05   1.662611E-05   1.662611E-05   1.662611E-05   1.662611E-05   1.662611E-05   1.662611E-05   1.662611E-05   1.662611E-05   1.662611E-05   1.662611E-05   1.662611E-05   1.662611E-05   1.662611E-05   1.662611E-05   1.662611E-05
   1.559769E-05   1.662611E-05   1.662611E-05   1.662611E-05   1.662611E-05   1.662611E-05   1.662611E-05   1.662611E-05   1.662611E-05   1.662611E-05   1.662611E-05   1.662611E-05   1.662611E-05   1.662611E-05   1.662611E-05   1.662611E-05   1.662611E-05   1.662611E-05   1.662611E-05   1.662611E-05
   1.559769E-05   1.559769E-05   1.662611E-05   1.662611E-05   1.662611E-05   1.662611E-05   1.662611E-05   1.662611E-05   1.662611E-05   1.662611E-05   1.662611E-05   1.662611E-05   1.662611E-05   1.662611E-05   1.662611E-05   1.662611E-05   1.662611E-05   1.662611E-05   1.662611E-05   1.662611E-05
   1.559769E-05   1.559769E-05   1.662611E-05   1.662611E-05   1.662611E-05   1.662611E-05   1.662611E-05   1.662611E-05   1.662611E-05   1.662611E-05   1.662611E-05   1.662611E-05   1.662611E-05   1.662611E-05   1.662611E-05   1.662611E-05   1.662611E-05   1.662611E-05   1.662611E-05   1.662611E-05
