# Well file for MODFLOW, generated by Flopy.
         4         0
         4         0
        1         8        10 -4.435177e+01
        1         8        15 -4.435177e+01
        1         3        16 -4.435177e+01
        1         2         7 -4.435177e+01
         4         0
        1         8        10 -7.680953e+01
        1         8        15 -7.680953e+01
        1         3        16 -7.680953e+01
        1         2         7 -7.680953e+01
         4         0
        1         8        10 -3.570623e+01
        1         8        15 -3.570623e+01
        1         3        16 -3.570623e+01
        1         2         7 -3.570623e+01
