# Well file for MODFLOW, generated by Flopy.
         4         0
         4         0
        1         7         9 -1.751519e+02
        1         7        14 -3.440525e+01
        1         3        16 -2.998915e+02
        1         2         7  0.000000e+00
         4         0
        1         7         9 -1.751519e+02
        1         7        14 -3.440525e+01
        1         3        16 -2.998915e+02
        1         2         7  0.000000e+00
         4         0
        1         7         9 -1.751519e+02
        1         7        14 -3.440525e+01
        1         3        16 -2.998915e+02
        1         2         7  0.000000e+00
