# RIV for MODFLOW, generated by Flopy.
        22         0
        22         0
        1         1        14  7.312648e+00  1.364388e+04  5.000000e+00
        1         2        14  7.312648e+00  1.356447e+04  5.000000e+00
        1         3        14  7.312648e+00  1.210971e+04  5.000000e+00
        1         4         6  7.312648e+00  1.091936e+04  5.000000e+00
        1         4         7  7.312648e+00  1.134561e+04  5.000000e+00
        1         4         8  7.312648e+00  1.181795e+04  5.000000e+00
        1         4         9  7.312648e+00  1.307261e+04  5.000000e+00
        1         4        10  7.312648e+00  1.201848e+04  5.000000e+00
        1         4        11  7.312648e+00  1.073095e+04  5.000000e+00
        1         4        12  7.312648e+00  5.201632e+03  5.000000e+00
        1         4        14  7.312648e+00  1.495867e+04  5.000000e+00
        1         5         3  7.312648e+00  6.894583e+02  5.000000e+00
        1         5         4  7.312648e+00  2.046865e+03  5.000000e+00
        1         5         5  7.312648e+00  1.346361e+04  5.000000e+00
        1         5         6  7.312648e+00  5.948116e+03  5.000000e+00
        1         5        12  7.312648e+00  8.375839e+03  5.000000e+00
        1         5        13  7.312648e+00  1.677495e+04  5.000000e+00
        1         5        14  7.312648e+00  5.193440e+03  5.000000e+00
        1         6         2  7.312648e+00  1.208766e+04  5.000000e+00
        1         6         3  7.312648e+00  1.806733e+04  5.000000e+00
        1         6         4  7.312648e+00  1.027355e+04  5.000000e+00
        1         6         5  7.312648e+00  1.327290e+03  5.000000e+00
        22         0
        1         1        14  8.386106e+00  1.364388e+04  5.000000e+00
        1         2        14  8.386106e+00  1.356447e+04  5.000000e+00
        1         3        14  8.386106e+00  1.210971e+04  5.000000e+00
        1         4         6  8.386106e+00  1.091936e+04  5.000000e+00
        1         4         7  8.386106e+00  1.134561e+04  5.000000e+00
        1         4         8  8.386106e+00  1.181795e+04  5.000000e+00
        1         4         9  8.386106e+00  1.307261e+04  5.000000e+00
        1         4        10  8.386106e+00  1.201848e+04  5.000000e+00
        1         4        11  8.386106e+00  1.073095e+04  5.000000e+00
        1         4        12  8.386106e+00  5.201632e+03  5.000000e+00
        1         4        14  8.386106e+00  1.495867e+04  5.000000e+00
        1         5         3  8.386106e+00  6.894583e+02  5.000000e+00
        1         5         4  8.386106e+00  2.046865e+03  5.000000e+00
        1         5         5  8.386106e+00  1.346361e+04  5.000000e+00
        1         5         6  8.386106e+00  5.948116e+03  5.000000e+00
        1         5        12  8.386106e+00  8.375839e+03  5.000000e+00
        1         5        13  8.386106e+00  1.677495e+04  5.000000e+00
        1         5        14  8.386106e+00  5.193440e+03  5.000000e+00
        1         6         2  8.386106e+00  1.208766e+04  5.000000e+00
        1         6         3  8.386106e+00  1.806733e+04  5.000000e+00
        1         6         4  8.386106e+00  1.027355e+04  5.000000e+00
        1         6         5  8.386106e+00  1.327290e+03  5.000000e+00
        22         0
        1         1        14  7.353555e+00  1.364388e+04  5.000000e+00
        1         2        14  7.353555e+00  1.356447e+04  5.000000e+00
        1         3        14  7.353555e+00  1.210971e+04  5.000000e+00
        1         4         6  7.353555e+00  1.091936e+04  5.000000e+00
        1         4         7  7.353555e+00  1.134561e+04  5.000000e+00
        1         4         8  7.353555e+00  1.181795e+04  5.000000e+00
        1         4         9  7.353555e+00  1.307261e+04  5.000000e+00
        1         4        10  7.353555e+00  1.201848e+04  5.000000e+00
        1         4        11  7.353555e+00  1.073095e+04  5.000000e+00
        1         4        12  7.353555e+00  5.201632e+03  5.000000e+00
        1         4        14  7.353555e+00  1.495867e+04  5.000000e+00
        1         5         3  7.353555e+00  6.894583e+02  5.000000e+00
        1         5         4  7.353555e+00  2.046865e+03  5.000000e+00
        1         5         5  7.353555e+00  1.346361e+04  5.000000e+00
        1         5         6  7.353555e+00  5.948116e+03  5.000000e+00
        1         5        12  7.353555e+00  8.375839e+03  5.000000e+00
        1         5        13  7.353555e+00  1.677495e+04  5.000000e+00
        1         5        14  7.353555e+00  5.193440e+03  5.000000e+00
        1         6         2  7.353555e+00  1.208766e+04  5.000000e+00
        1         6         3  7.353555e+00  1.806733e+04  5.000000e+00
        1         6         4  7.353555e+00  1.027355e+04  5.000000e+00
        1         6         5  7.353555e+00  1.327290e+03  5.000000e+00
