# Well file for MODFLOW, generated by Flopy.
         4         0
         4         0
        1         9        11 -5.023704e+01
        1        10        17 -5.023704e+01
        1         3        16 -5.023704e+01
        1         2         7 -5.023704e+01
         4         0
        1         9        11 -4.961803e+01
        1        10        17 -4.961803e+01
        1         3        16 -4.961803e+01
        1         2         7 -4.961803e+01
         4         0
        1         9        11 -5.589840e+01
        1        10        17 -5.589840e+01
        1         3        16 -5.589840e+01
        1         2         7 -5.589840e+01
